Program Version,EnergyPlus 3.1.0.027, 8/13/2009 10:06 AM
! This file shows details about the branches, nodes, and other
! elements of the flow connections.
! This file is intended for use in "debugging" potential problems
! that may also be detected by the program, but may be more easily
! identified by "eye".
! This file is also intended to support software which draws a
! schematic diagram of the HVAC system.
! ===============================================================
! #Nodes,<Number of Unique Nodes>
 #Nodes,168                 
! <Node>,<NodeNumber>,<Node Name>,<Node Fluid Type>,<# Times Node Referenced After Definition>
 Node,1,VAV_5_OAINLET NODE,Air,2
 Node,2,PER3NOR INLET NODE,Air,3
 Node,3,PER3EAS INLET NODE,Air,3
 Node,4,PER3SOU INLET NODE,Air,3
 Node,5,PER3WES INLET NODE,Air,3
 Node,6,COR3 INLET NODE,Air,3
 Node,7,PER1NOR INLET NODE,Air,3
 Node,8,PER1EAS INLET NODE,Air,3
 Node,9,PER1SOU INLET NODE,Air,3
 Node,10,PER1WES INLET NODE,Air,3
 Node,11,COR1 INLET NODE,Air,3
 Node,12,PER2NOR INLET NODE,Air,3
 Node,13,PER2EAS INLET NODE,Air,3
 Node,14,PER2SOU INLET NODE,Air,3
 Node,15,PER2WES INLET NODE,Air,3
 Node,16,COR2 INLET NODE,Air,3
 Node,17,MIXED AIR NODE 1,Air,6
 Node,18,OUTSIDE AIR INLET NODE 1,blank,0
 Node,19,AIR LOOP OUTLET NODE 1,Air,10
 Node,20,CW SUPPLY OUTLET NODE,blank,0
 Node,21,HW SUPPLY OUTLET NODE,blank,0
 Node,22,CONDENSER SUPPLY OUTLET NODE,blank,0
 Node,23,VAV_5 SUPPLY EQUIPMENT INLET NODE,Air,4
 Node,24,VAV_5 OA_SYS_INLET NODE,Air,2
 Node,25,COOLING COIL AIR OUTLET NODE,Air,5
 Node,26,HEATING COIL AIR OUTLET NODE,Air,8
 Node,27,HEATSYS1 SUPPLY INLET NODE,Water,2
 Node,28,BOILER INLET NODEVIACONNECTOR,Water,1
 Node,29,BOILER INLET NODE,Water,1
 Node,30,BOILER OUTLET NODE,Water,1
 Node,31,HEATSYS1 SUPPLY EQUIP BYPASS INLET NODE,Water,1
 Node,32,HEATSYS1 SUPPLY EQUIP BYPASS OUTLET NODE,Water,1
 Node,33,HEATSYS1 SUPPLY MIXER-HEATSYS1 SUPPLY OUTLET PIPE,Water,1
 Node,34,HEATSYS1 SUPPLY OUTLET NODE,Water,4
 Node,35,HEATSYS1 DEMAND INLET NODE,Water,2
 Node,36,HEATSYS1 DEMAND INLET PIPE-HEATSYS1 DEMAND MIXER,Water,1
 Node,37,ZONE 1 REHEAT WATER INLET NODE,Water,1
 Node,38,ZONE 1 REHEAT WATER OUTLET NODE,Water,1
 Node,39,ZONE 2 REHEAT WATER INLET NODE,Water,1
 Node,40,ZONE 2 REHEAT WATER OUTLET NODE,Water,1
 Node,41,ZONE 3 REHEAT WATER INLET NODE,Water,1
 Node,42,ZONE 3 REHEAT WATER OUTLET NODE,Water,1
 Node,43,ZONE 4 REHEAT WATER INLET NODE,Water,1
 Node,44,ZONE 4 REHEAT WATER OUTLET NODE,Water,1
 Node,45,ZONE 5 REHEAT WATER INLET NODE,Water,1
 Node,46,ZONE 5 REHEAT WATER OUTLET NODE,Water,1
 Node,47,ZONE 6 REHEAT WATER INLET NODE,Water,1
 Node,48,ZONE 6 REHEAT WATER OUTLET NODE,Water,1
 Node,49,ZONE 7 REHEAT WATER INLET NODE,Water,1
 Node,50,ZONE 7 REHEAT WATER OUTLET NODE,Water,1
 Node,51,ZONE 8 REHEAT WATER INLET NODE,Water,1
 Node,52,ZONE 8 REHEAT WATER OUTLET NODE,Water,1
 Node,53,ZONE 9 REHEAT WATER INLET NODE,Water,1
 Node,54,ZONE 9 REHEAT WATER OUTLET NODE,Water,1
 Node,55,ZONE 10 REHEAT WATER INLET NODE,Water,1
 Node,56,ZONE 10 REHEAT WATER OUTLET NODE,Water,1
 Node,57,ZONE 11 REHEAT WATER INLET NODE,Water,1
 Node,58,ZONE 11 REHEAT WATER OUTLET NODE,Water,1
 Node,59,ZONE 12 REHEAT WATER INLET NODE,Water,1
 Node,60,ZONE 12 REHEAT WATER OUTLET NODE,Water,1
 Node,61,ZONE 13 REHEAT WATER INLET NODE,Water,1
 Node,62,ZONE 13 REHEAT WATER OUTLET NODE,Water,1
 Node,63,ZONE 14 REHEAT WATER INLET NODE,Water,1
 Node,64,ZONE 14 REHEAT WATER OUTLET NODE,Water,1
 Node,65,ZONE 15 REHEAT WATER INLET NODE,Water,1
 Node,66,ZONE 15 REHEAT WATER OUTLET NODE,Water,1
 Node,67,HEATING COIL WATER INLET NODE,Water,2
 Node,68,HEATING COIL WATER OUTLET NODE,Water,1
 Node,69,HEATSYS1 DEMAND BYPASS PIPE INLET NODE,Water,1
 Node,70,HEATSYS1 DEMAND BYPASS PIPE OUTLET NODE,Water,1
 Node,71,HEATSYS1 DEMAND MIXER-HEATSYS1 DEMAND OUTLET PIPE,Water,1
 Node,72,HEATSYS1 DEMAND OUTLET NODE,Water,2
 Node,73,COOLSYS1 SUPPLY INLET NODE,Water,2
 Node,74,COOLSYS1 INLET NODEVIACONNECTOR,Water,1
 Node,75,COOLSYS1 INLET NODE,Water,1
 Node,76,COOLSYS1 OUTLET NODE,Water,1
 Node,77,COOLSYS1 SUPPLY EQUIP BYPASS INLET NODE,Water,1
 Node,78,COOLSYS1 SUPPLY EQUIP BYPASS OUTLET NODE,Water,1
 Node,79,COOLSYS1 SUPPLY MIXER-COOLSYS1 SUPPLY OUTLET PIPE,Water,1
 Node,80,COOLSYS1 SUPPLY OUTLET NODE,Water,4
 Node,81,COOLSYS1 DEMAND INLET NODE,Water,2
 Node,82,COOLSYS1 DEMAND INLET PIPE-COOLSYS1 DEMAND MIXER,Water,1
 Node,83,COOLING COIL WATER INLET NODE,Water,2
 Node,84,COOLING COIL WATER OUTLET NODE,Water,1
 Node,85,COOLSYS1 DEMAND BYPASS PIPE INLET NODE,Water,1
 Node,86,COOLSYS1 DEMAND BYPASS PIPE OUTLET NODE,Water,1
 Node,87,COOLSYS1 DEMAND MIXER-COOLSYS1 DEMAND OUTLET PIPE,Water,1
 Node,88,COOLSYS1 DEMAND OUTLET NODE,Water,2
 Node,89,CONDENSER LOOP SUPPLY INLET NODE,Water,3
 Node,90,CONDENSER TOWER INLET NODEVIACONNECTOR,Water,1
 Node,91,CONDENSER TOWER INLET NODE,Water,1
 Node,92,CONDENSER TOWER OUTLET NODE,Water,1
 Node,93,TOWERWATERSYS SUPPLY EQUIP BYPASS INLET NODE,Water,1
 Node,94,TOWERWATERSYS SUPPLY EQUIP BYPASS OUTLET NODE,Water,1
 Node,95,TOWERWATERSYS SUPPLY MIXER-TOWERWATERSYS SUPPLY OUTLET PIPE,Water,1
 Node,96,TOWERWATERSYS SUPPLY OUTLET NODE,Water,3
 Node,97,TOWERWATERSYS DEMAND INLET NODE,Water,3
 Node,98,TOWERWATERSYS DEMAND INLET PIPE-TOWERWATERSYS DEMAND MIXER,Water,1
 Node,99,COOLSYS1 CONDENSER WATER INLET NODE,Water,1
 Node,100,COOLSYS1 CONDENSER WATER OUTLET NODE,Water,1
 Node,101,TOWERWATERSYS DEMAND BYPASS PIPE INLET NODE,Water,1
 Node,102,TOWERWATERSYS DEMAND BYPASS PIPE OUTLET NODE,Water,1
 Node,103,TOWERWATERSYS DEMAND MIXER-TOWERWATERSYS DEMAND OUTLET PIPE,Water,1
 Node,104,TOWERWATERSYS DEMAND OUTLET NODE,Water,2
 Node,105,TOWERWATERSYS COOLTOWER OA REF NODE,Air,1
 Node,106,PER3NOR NODE,Air,0
 Node,107,PER3NOR OUTLET NODE,Air,1
 Node,108,PER3EAS NODE,Air,0
 Node,109,PER3EAS OUTLET NODE,Air,1
 Node,110,PER3SOU NODE,Air,0
 Node,111,PER3SOU OUTLET NODE,Air,1
 Node,112,PER3WES NODE,Air,0
 Node,113,PER3WES OUTLET NODE,Air,1
 Node,114,COR3 NODE,Air,0
 Node,115,COR3 OUTLET NODE,Air,1
 Node,116,PER1NOR NODE,Air,0
 Node,117,PER1NOR OUTLET NODE,Air,1
 Node,118,PER1EAS NODE,Air,0
 Node,119,PER1EAS OUTLET NODE,Air,1
 Node,120,PER1SOU NODE,Air,0
 Node,121,PER1SOU OUTLET NODE,Air,1
 Node,122,PER1WES NODE,Air,0
 Node,123,PER1WES OUTLET NODE,Air,1
 Node,124,COR1 NODE,Air,0
 Node,125,COR1 OUTLET NODE,Air,1
 Node,126,PER2NOR NODE,Air,0
 Node,127,PER2NOR OUTLET NODE,Air,1
 Node,128,PER2EAS NODE,Air,0
 Node,129,PER2EAS OUTLET NODE,Air,1
 Node,130,PER2SOU NODE,Air,0
 Node,131,PER2SOU OUTLET NODE,Air,1
 Node,132,PER2WES NODE,Air,0
 Node,133,PER2WES OUTLET NODE,Air,1
 Node,134,COR2 NODE,Air,0
 Node,135,COR2 OUTLET NODE,Air,1
 Node,136,VAV_5 ZONE EQUIPMENT INLET NODE,Air,2
 Node,137,VAV_5 ZONE EQUIPMENT OUTLET NODE,Air,2
 Node,138,ZONE 1 DAMPER INLET NODE,Air,1
 Node,139,ZONE 2 DAMPER INLET NODE,Air,1
 Node,140,ZONE 3 DAMPER INLET NODE,Air,1
 Node,141,ZONE 4 DAMPER INLET NODE,Air,1
 Node,142,ZONE 5 DAMPER INLET NODE,Air,1
 Node,143,ZONE 6 DAMPER INLET NODE,Air,1
 Node,144,ZONE 7 DAMPER INLET NODE,Air,1
 Node,145,ZONE 8 DAMPER INLET NODE,Air,1
 Node,146,ZONE 9 DAMPER INLET NODE,Air,1
 Node,147,ZONE 10 DAMPER INLET NODE,Air,1
 Node,148,ZONE 11 DAMPER INLET NODE,Air,1
 Node,149,ZONE 12 DAMPER INLET NODE,Air,1
 Node,150,ZONE 13 DAMPER INLET NODE,Air,1
 Node,151,ZONE 14 DAMPER INLET NODE,Air,1
 Node,152,ZONE 15 DAMPER INLET NODE,Air,1
 Node,153,ZONE 1 REHEAT AIR INLET NODE,Air,1
 Node,154,ZONE 2 REHEAT AIR INLET NODE,Air,1
 Node,155,ZONE 3 REHEAT AIR INLET NODE,Air,1
 Node,156,ZONE 4 REHEAT AIR INLET NODE,Air,1
 Node,157,ZONE 5 REHEAT AIR INLET NODE,Air,1
 Node,158,ZONE 6 REHEAT AIR INLET NODE,Air,1
 Node,159,ZONE 7 REHEAT AIR INLET NODE,Air,1
 Node,160,ZONE 8 REHEAT AIR INLET NODE,Air,1
 Node,161,ZONE 9 REHEAT AIR INLET NODE,Air,1
 Node,162,ZONE 10 REHEAT AIR INLET NODE,Air,1
 Node,163,ZONE 11 REHEAT AIR INLET NODE,Air,1
 Node,164,ZONE 12 REHEAT AIR INLET NODE,Air,1
 Node,165,ZONE 13 REHEAT AIR INLET NODE,Air,1
 Node,166,ZONE 14 REHEAT AIR INLET NODE,Air,1
 Node,167,ZONE 15 REHEAT AIR INLET NODE,Air,1
 Node,168,VAV_5_OARELIEF NODE,Air,1
! ===============================================================
! Suspicious nodes have 0 references.  It is normal for some nodes, however.
! Listing nodes with 0 references (culled from previous list):
! <Suspicious Node>,<NodeNumber>,<Node Name>,<Node Fluid Type>,<# Times Node Referenced After Definition>
 Suspicious Node,18,OUTSIDE AIR INLET NODE 1,blank,0
 Suspicious Node,20,CW SUPPLY OUTLET NODE,blank,0
 Suspicious Node,21,HW SUPPLY OUTLET NODE,blank,0
 Suspicious Node,22,CONDENSER SUPPLY OUTLET NODE,blank,0
 Suspicious Node,106,PER3NOR NODE,Air,0
 Suspicious Node,108,PER3EAS NODE,Air,0
 Suspicious Node,110,PER3SOU NODE,Air,0
 Suspicious Node,112,PER3WES NODE,Air,0
 Suspicious Node,114,COR3 NODE,Air,0
 Suspicious Node,116,PER1NOR NODE,Air,0
 Suspicious Node,118,PER1EAS NODE,Air,0
 Suspicious Node,120,PER1SOU NODE,Air,0
 Suspicious Node,122,PER1WES NODE,Air,0
 Suspicious Node,124,COR1 NODE,Air,0
 Suspicious Node,126,PER2NOR NODE,Air,0
 Suspicious Node,128,PER2EAS NODE,Air,0
 Suspicious Node,130,PER2SOU NODE,Air,0
 Suspicious Node,132,PER2WES NODE,Air,0
 Suspicious Node,134,COR2 NODE,Air,0
! ===============================================================
! <#Branch Lists>,<Number of Branch Lists>
 #Branch Lists,7
! <Branch List>,<Branch List Count>,<Branch List Name>,<Loop Name>,<Loop Type>,<Number of Branches>
! <Branch>,<Branch Count>,<Branch Name>,<Loop Name>,<Loop Type>,<Branch Inlet Node Name>,<Branch Outlet Node Name>
 Branch List,1,VAV_5 AIR LOOP BRANCHES,VAV_5,Air,1
   Branch,1,VAV_5 AIR LOOP MAIN BRANCH,VAV_5,Air,VAV_5 SUPPLY EQUIPMENT INLET NODE,AIR LOOP OUTLET NODE 1
 Branch List,2,HEATSYS1 SUPPLY BRANCHES,HEATSYS1,Plant Supply,4
   Branch,1,HEATSYS1 SUPPLY INLET BRANCH,HEATSYS1,Plant Supply,HEATSYS1 SUPPLY INLET NODE,BOILER INLET NODEVIACONNECTOR
   Branch,2,HEATSYS1 SUPPLY EQUIPMENT BRANCH,HEATSYS1,Plant Supply,BOILER INLET NODE,BOILER OUTLET NODE
   Branch,3,HEATSYS1 SUPPLY EQUIPMENT BYPASS BRANCH,HEATSYS1,Plant Supply,HEATSYS1 SUPPLY EQUIP BYPASS INLET NODE,HEATSYS1 SUPPLY EQUIP BYPASS OUTLET NODE
   Branch,4,HEATSYS1 SUPPLY OUTLET BRANCH,HEATSYS1,Plant Supply,HEATSYS1 SUPPLY MIXER-HEATSYS1 SUPPLY OUTLET PIPE,HEATSYS1 SUPPLY OUTLET NODE
 Branch List,3,HEATSYS1 DEMAND BRANCHES,HEATSYS1,Plant Demand,19
   Branch,1,HEATSYS1 DEMAND INLET BRANCH,HEATSYS1,Plant Demand,HEATSYS1 DEMAND INLET NODE,HEATSYS1 DEMAND INLET PIPE-HEATSYS1 DEMAND MIXER
   Branch,2,ZONE 1 REHEAT BRANCH,HEATSYS1,Plant Demand,ZONE 1 REHEAT WATER INLET NODE,ZONE 1 REHEAT WATER OUTLET NODE
   Branch,3,ZONE 2 REHEAT BRANCH,HEATSYS1,Plant Demand,ZONE 2 REHEAT WATER INLET NODE,ZONE 2 REHEAT WATER OUTLET NODE
   Branch,4,ZONE 3 REHEAT BRANCH,HEATSYS1,Plant Demand,ZONE 3 REHEAT WATER INLET NODE,ZONE 3 REHEAT WATER OUTLET NODE
   Branch,5,ZONE 4 REHEAT BRANCH,HEATSYS1,Plant Demand,ZONE 4 REHEAT WATER INLET NODE,ZONE 4 REHEAT WATER OUTLET NODE
   Branch,6,ZONE 5 REHEAT BRANCH,HEATSYS1,Plant Demand,ZONE 5 REHEAT WATER INLET NODE,ZONE 5 REHEAT WATER OUTLET NODE
   Branch,7,ZONE 6 REHEAT BRANCH,HEATSYS1,Plant Demand,ZONE 6 REHEAT WATER INLET NODE,ZONE 6 REHEAT WATER OUTLET NODE
   Branch,8,ZONE 7 REHEAT BRANCH,HEATSYS1,Plant Demand,ZONE 7 REHEAT WATER INLET NODE,ZONE 7 REHEAT WATER OUTLET NODE
   Branch,9,ZONE 8 REHEAT BRANCH,HEATSYS1,Plant Demand,ZONE 8 REHEAT WATER INLET NODE,ZONE 8 REHEAT WATER OUTLET NODE
   Branch,10,ZONE 9 REHEAT BRANCH,HEATSYS1,Plant Demand,ZONE 9 REHEAT WATER INLET NODE,ZONE 9 REHEAT WATER OUTLET NODE
   Branch,11,ZONE 10 REHEAT BRANCH,HEATSYS1,Plant Demand,ZONE 10 REHEAT WATER INLET NODE,ZONE 10 REHEAT WATER OUTLET NODE
   Branch,12,ZONE 11 REHEAT BRANCH,HEATSYS1,Plant Demand,ZONE 11 REHEAT WATER INLET NODE,ZONE 11 REHEAT WATER OUTLET NODE
   Branch,13,ZONE 12 REHEAT BRANCH,HEATSYS1,Plant Demand,ZONE 12 REHEAT WATER INLET NODE,ZONE 12 REHEAT WATER OUTLET NODE
   Branch,14,ZONE 13 REHEAT BRANCH,HEATSYS1,Plant Demand,ZONE 13 REHEAT WATER INLET NODE,ZONE 13 REHEAT WATER OUTLET NODE
   Branch,15,ZONE 14 REHEAT BRANCH,HEATSYS1,Plant Demand,ZONE 14 REHEAT WATER INLET NODE,ZONE 14 REHEAT WATER OUTLET NODE
   Branch,16,ZONE 15 REHEAT BRANCH,HEATSYS1,Plant Demand,ZONE 15 REHEAT WATER INLET NODE,ZONE 15 REHEAT WATER OUTLET NODE
   Branch,17,MAIN HEAT COIL BRANCH,HEATSYS1,Plant Demand,HEATING COIL WATER INLET NODE,HEATING COIL WATER OUTLET NODE
   Branch,18,HEATSYS1 DEMAND BYPASS BRANCH,HEATSYS1,Plant Demand,HEATSYS1 DEMAND BYPASS PIPE INLET NODE,HEATSYS1 DEMAND BYPASS PIPE OUTLET NODE
   Branch,19,HEATSYS1 DEMAND OUTLET BRANCH,HEATSYS1,Plant Demand,HEATSYS1 DEMAND MIXER-HEATSYS1 DEMAND OUTLET PIPE,HEATSYS1 DEMAND OUTLET NODE
 Branch List,4,COOLSYS1 SUPPLY BRANCHES,COOLSYS1,Plant Supply,4
   Branch,1,COOLSYS1 SUPPLY INLET BRANCH,COOLSYS1,Plant Supply,COOLSYS1 SUPPLY INLET NODE,COOLSYS1 INLET NODEVIACONNECTOR
   Branch,2,COOLSYS1 SUPPLY EQUIPMENT BRANCH,COOLSYS1,Plant Supply,COOLSYS1 INLET NODE,COOLSYS1 OUTLET NODE
   Branch,3,COOLSYS1 SUPPLY EQUIPMENT BYPASS BRANCH,COOLSYS1,Plant Supply,COOLSYS1 SUPPLY EQUIP BYPASS INLET NODE,COOLSYS1 SUPPLY EQUIP BYPASS OUTLET NODE
   Branch,4,COOLSYS1 SUPPLY OUTLET BRANCH,COOLSYS1,Plant Supply,COOLSYS1 SUPPLY MIXER-COOLSYS1 SUPPLY OUTLET PIPE,COOLSYS1 SUPPLY OUTLET NODE
 Branch List,5,COOLSYS1 DEMAND BRANCHES,COOLSYS1,Plant Demand,4
   Branch,1,COOLSYS1 DEMAND INLET BRANCH,COOLSYS1,Plant Demand,COOLSYS1 DEMAND INLET NODE,COOLSYS1 DEMAND INLET PIPE-COOLSYS1 DEMAND MIXER
   Branch,2,COOLSYS1 DEMAND LOAD BRANCH 1,COOLSYS1,Plant Demand,COOLING COIL WATER INLET NODE,COOLING COIL WATER OUTLET NODE
   Branch,3,COOLSYS1 DEMAND BYPASS BRANCH,COOLSYS1,Plant Demand,COOLSYS1 DEMAND BYPASS PIPE INLET NODE,COOLSYS1 DEMAND BYPASS PIPE OUTLET NODE
   Branch,4,COOLSYS1 DEMAND OUTLET BRANCH,COOLSYS1,Plant Demand,COOLSYS1 DEMAND MIXER-COOLSYS1 DEMAND OUTLET PIPE,COOLSYS1 DEMAND OUTLET NODE
 Branch List,6,TOWERWATERSYS SUPPLY BRANCHES,TOWERWATERSYS,Condenser Supply,4
   Branch,1,TOWERWATERSYS SUPPLY INLET BRANCH,TOWERWATERSYS,Condenser Supply,CONDENSER LOOP SUPPLY INLET NODE,CONDENSER TOWER INLET NODEVIACONNECTOR
   Branch,2,TOWERWATERSYS SUPPLY EQUIPMENT BRANCH,TOWERWATERSYS,Condenser Supply,CONDENSER TOWER INLET NODE,CONDENSER TOWER OUTLET NODE
   Branch,3,TOWERWATERSYS SUPPLY EQUIPMENT BYPASS BRANCH,TOWERWATERSYS,Condenser Supply,TOWERWATERSYS SUPPLY EQUIP BYPASS INLET NODE,TOWERWATERSYS SUPPLY EQUIP BYPASS OUTLET NODE
   Branch,4,TOWERWATERSYS SUPPLY OUTLET BRANCH,TOWERWATERSYS,Condenser Supply,TOWERWATERSYS SUPPLY MIXER-TOWERWATERSYS SUPPLY OUTLET PIPE,TOWERWATERSYS SUPPLY OUTLET NODE
 Branch List,7,TOWERWATERSYS DEMAND BRANCHES,TOWERWATERSYS,Condenser Demand,4
   Branch,1,TOWERWATERSYS DEMAND INLET BRANCH,TOWERWATERSYS,Condenser Demand,TOWERWATERSYS DEMAND INLET NODE,TOWERWATERSYS DEMAND INLET PIPE-TOWERWATERSYS DEMAND MIXER
   Branch,2,TOWERWATERSYS DEMAND LOAD BRANCH 1,TOWERWATERSYS,Condenser Demand,COOLSYS1 CONDENSER WATER INLET NODE,COOLSYS1 CONDENSER WATER OUTLET NODE
   Branch,3,TOWERWATERSYS DEMAND BYPASS BRANCH,TOWERWATERSYS,Condenser Demand,TOWERWATERSYS DEMAND BYPASS PIPE INLET NODE,TOWERWATERSYS DEMAND BYPASS PIPE OUTLET NODE
   Branch,4,TOWERWATERSYS DEMAND OUTLET BRANCH,TOWERWATERSYS,Condenser Demand,TOWERWATERSYS DEMAND MIXER-TOWERWATERSYS DEMAND OUTLET PIPE,TOWERWATERSYS DEMAND OUTLET NODE
! ===============================================================
! <#Supply Air Paths>,<Number of Supply Air Paths>
 #Supply Air Paths,1
! <Supply Air Path>,<Supply Air Path Count>,<Supply Air Path Name>,<AirLoopHVAC Name>
! <#Components on Supply Air Path>,<Number of Components>
! <Supply Air Path Component>,<Component Count>,<Component Type>,<Component Name>,<AirLoopHVAC Name>
! <#Outlet Nodes on Supply Air Path Component>,<Number of Nodes>
! <Supply Air Path Component Nodes>,<Node Count>,<Component Type>,<Component Name>,<Inlet Node Name>,<Outlet Node Name>,<AirLoopHVAC Name>
 Supply Air Path,1,VAV_5,VAV_5
   #Components on Supply Air Path,1
   Supply Air Path Component,1,AIRLOOPHVAC:ZONESPLITTER,VAV_5 SUPPLY AIR SPLITTER,VAV_5
     #Outlet Nodes on Supply Air Path Component,15
     Supply Air Path Component Nodes,1,AIRLOOPHVAC:ZONESPLITTER,VAV_5 SUPPLY AIR SPLITTER,VAV_5 ZONE EQUIPMENT INLET NODE,ZONE 1 DAMPER INLET NODE,VAV_5
     Supply Air Path Component Nodes,2,AIRLOOPHVAC:ZONESPLITTER,VAV_5 SUPPLY AIR SPLITTER,VAV_5 ZONE EQUIPMENT INLET NODE,ZONE 2 DAMPER INLET NODE,VAV_5
     Supply Air Path Component Nodes,3,AIRLOOPHVAC:ZONESPLITTER,VAV_5 SUPPLY AIR SPLITTER,VAV_5 ZONE EQUIPMENT INLET NODE,ZONE 3 DAMPER INLET NODE,VAV_5
     Supply Air Path Component Nodes,4,AIRLOOPHVAC:ZONESPLITTER,VAV_5 SUPPLY AIR SPLITTER,VAV_5 ZONE EQUIPMENT INLET NODE,ZONE 4 DAMPER INLET NODE,VAV_5
     Supply Air Path Component Nodes,5,AIRLOOPHVAC:ZONESPLITTER,VAV_5 SUPPLY AIR SPLITTER,VAV_5 ZONE EQUIPMENT INLET NODE,ZONE 5 DAMPER INLET NODE,VAV_5
     Supply Air Path Component Nodes,6,AIRLOOPHVAC:ZONESPLITTER,VAV_5 SUPPLY AIR SPLITTER,VAV_5 ZONE EQUIPMENT INLET NODE,ZONE 6 DAMPER INLET NODE,VAV_5
     Supply Air Path Component Nodes,7,AIRLOOPHVAC:ZONESPLITTER,VAV_5 SUPPLY AIR SPLITTER,VAV_5 ZONE EQUIPMENT INLET NODE,ZONE 7 DAMPER INLET NODE,VAV_5
     Supply Air Path Component Nodes,8,AIRLOOPHVAC:ZONESPLITTER,VAV_5 SUPPLY AIR SPLITTER,VAV_5 ZONE EQUIPMENT INLET NODE,ZONE 8 DAMPER INLET NODE,VAV_5
     Supply Air Path Component Nodes,9,AIRLOOPHVAC:ZONESPLITTER,VAV_5 SUPPLY AIR SPLITTER,VAV_5 ZONE EQUIPMENT INLET NODE,ZONE 9 DAMPER INLET NODE,VAV_5
     Supply Air Path Component Nodes,10,AIRLOOPHVAC:ZONESPLITTER,VAV_5 SUPPLY AIR SPLITTER,VAV_5 ZONE EQUIPMENT INLET NODE,ZONE 10 DAMPER INLET NODE,VAV_5
     Supply Air Path Component Nodes,11,AIRLOOPHVAC:ZONESPLITTER,VAV_5 SUPPLY AIR SPLITTER,VAV_5 ZONE EQUIPMENT INLET NODE,ZONE 11 DAMPER INLET NODE,VAV_5
     Supply Air Path Component Nodes,12,AIRLOOPHVAC:ZONESPLITTER,VAV_5 SUPPLY AIR SPLITTER,VAV_5 ZONE EQUIPMENT INLET NODE,ZONE 12 DAMPER INLET NODE,VAV_5
     Supply Air Path Component Nodes,13,AIRLOOPHVAC:ZONESPLITTER,VAV_5 SUPPLY AIR SPLITTER,VAV_5 ZONE EQUIPMENT INLET NODE,ZONE 13 DAMPER INLET NODE,VAV_5
     Supply Air Path Component Nodes,14,AIRLOOPHVAC:ZONESPLITTER,VAV_5 SUPPLY AIR SPLITTER,VAV_5 ZONE EQUIPMENT INLET NODE,ZONE 14 DAMPER INLET NODE,VAV_5
     Supply Air Path Component Nodes,15,AIRLOOPHVAC:ZONESPLITTER,VAV_5 SUPPLY AIR SPLITTER,VAV_5 ZONE EQUIPMENT INLET NODE,ZONE 15 DAMPER INLET NODE,VAV_5
! <#Nodes on Supply Air Path>,<Number of Nodes>
! <Supply Air Path Node>,<Node Type>,<Node Count>,<Node Name>,<AirLoopHVAC Name>
#Nodes on Supply Air Path,16
   Supply Air Path Node,Inlet Node,1,VAV_5 ZONE EQUIPMENT INLET NODE,VAV_5
   Supply Air Path Node,Outlet Node,2,ZONE 1 DAMPER INLET NODE,VAV_5
   Supply Air Path Node,Outlet Node,3,ZONE 2 DAMPER INLET NODE,VAV_5
   Supply Air Path Node,Outlet Node,4,ZONE 3 DAMPER INLET NODE,VAV_5
   Supply Air Path Node,Outlet Node,5,ZONE 4 DAMPER INLET NODE,VAV_5
   Supply Air Path Node,Outlet Node,6,ZONE 5 DAMPER INLET NODE,VAV_5
   Supply Air Path Node,Outlet Node,7,ZONE 6 DAMPER INLET NODE,VAV_5
   Supply Air Path Node,Outlet Node,8,ZONE 7 DAMPER INLET NODE,VAV_5
   Supply Air Path Node,Outlet Node,9,ZONE 8 DAMPER INLET NODE,VAV_5
   Supply Air Path Node,Outlet Node,10,ZONE 9 DAMPER INLET NODE,VAV_5
   Supply Air Path Node,Outlet Node,11,ZONE 10 DAMPER INLET NODE,VAV_5
   Supply Air Path Node,Outlet Node,12,ZONE 11 DAMPER INLET NODE,VAV_5
   Supply Air Path Node,Outlet Node,13,ZONE 12 DAMPER INLET NODE,VAV_5
   Supply Air Path Node,Outlet Node,14,ZONE 13 DAMPER INLET NODE,VAV_5
   Supply Air Path Node,Outlet Node,15,ZONE 14 DAMPER INLET NODE,VAV_5
   Supply Air Path Node,Outlet Node,16,ZONE 15 DAMPER INLET NODE,VAV_5
! ===============================================================
! <#Return Air Paths>,<Number of Return Air Paths>
 #Return Air Paths,1
! <Return Air Path>,<Return Air Path Count>,<Return Air Path Name>,<AirLoopHVAC Name>
! <#Components on Return Air Path>,<Number of Components>
! <Return Air Path Component>,<Component Count>,<Component Type>,<Component Name>,<AirLoopHVAC Name>
! <#Inlet Nodes on Return Air Path Component>,<Number of Nodes>
! <Return Air Path Component Nodes>,<Node Count>,<Component Type>,<Component Name>,<Inlet Node Name>,<Outlet Node Name>,<AirLoopHVAC Name>
 Return Air Path,1,VAV_5 RETURN AIR PATH,VAV_5
   #Components on Return Air Path,1
   Return Air Path Component,1,AIRLOOPHVAC:ZONEMIXER,VAV_5 RETURN AIR MIXER,VAV_5
     #Inlet Nodes on Return Air Path Component,15
     Return Air Path Component Nodes,1,AIRLOOPHVAC:ZONEMIXER,VAV_5 RETURN AIR MIXER,PER1NOR OUTLET NODE,VAV_5 ZONE EQUIPMENT OUTLET NODE,VAV_5
     Return Air Path Component Nodes,2,AIRLOOPHVAC:ZONEMIXER,VAV_5 RETURN AIR MIXER,PER1EAS OUTLET NODE,VAV_5 ZONE EQUIPMENT OUTLET NODE,VAV_5
     Return Air Path Component Nodes,3,AIRLOOPHVAC:ZONEMIXER,VAV_5 RETURN AIR MIXER,PER1SOU OUTLET NODE,VAV_5 ZONE EQUIPMENT OUTLET NODE,VAV_5
     Return Air Path Component Nodes,4,AIRLOOPHVAC:ZONEMIXER,VAV_5 RETURN AIR MIXER,PER1WES OUTLET NODE,VAV_5 ZONE EQUIPMENT OUTLET NODE,VAV_5
     Return Air Path Component Nodes,5,AIRLOOPHVAC:ZONEMIXER,VAV_5 RETURN AIR MIXER,COR1 OUTLET NODE,VAV_5 ZONE EQUIPMENT OUTLET NODE,VAV_5
     Return Air Path Component Nodes,6,AIRLOOPHVAC:ZONEMIXER,VAV_5 RETURN AIR MIXER,PER2NOR OUTLET NODE,VAV_5 ZONE EQUIPMENT OUTLET NODE,VAV_5
     Return Air Path Component Nodes,7,AIRLOOPHVAC:ZONEMIXER,VAV_5 RETURN AIR MIXER,PER2EAS OUTLET NODE,VAV_5 ZONE EQUIPMENT OUTLET NODE,VAV_5
     Return Air Path Component Nodes,8,AIRLOOPHVAC:ZONEMIXER,VAV_5 RETURN AIR MIXER,PER2SOU OUTLET NODE,VAV_5 ZONE EQUIPMENT OUTLET NODE,VAV_5
     Return Air Path Component Nodes,9,AIRLOOPHVAC:ZONEMIXER,VAV_5 RETURN AIR MIXER,PER2WES OUTLET NODE,VAV_5 ZONE EQUIPMENT OUTLET NODE,VAV_5
     Return Air Path Component Nodes,10,AIRLOOPHVAC:ZONEMIXER,VAV_5 RETURN AIR MIXER,COR2 OUTLET NODE,VAV_5 ZONE EQUIPMENT OUTLET NODE,VAV_5
     Return Air Path Component Nodes,11,AIRLOOPHVAC:ZONEMIXER,VAV_5 RETURN AIR MIXER,PER3NOR OUTLET NODE,VAV_5 ZONE EQUIPMENT OUTLET NODE,VAV_5
     Return Air Path Component Nodes,12,AIRLOOPHVAC:ZONEMIXER,VAV_5 RETURN AIR MIXER,PER3EAS OUTLET NODE,VAV_5 ZONE EQUIPMENT OUTLET NODE,VAV_5
     Return Air Path Component Nodes,13,AIRLOOPHVAC:ZONEMIXER,VAV_5 RETURN AIR MIXER,PER3SOU OUTLET NODE,VAV_5 ZONE EQUIPMENT OUTLET NODE,VAV_5
     Return Air Path Component Nodes,14,AIRLOOPHVAC:ZONEMIXER,VAV_5 RETURN AIR MIXER,PER3WES OUTLET NODE,VAV_5 ZONE EQUIPMENT OUTLET NODE,VAV_5
     Return Air Path Component Nodes,15,AIRLOOPHVAC:ZONEMIXER,VAV_5 RETURN AIR MIXER,COR3 OUTLET NODE,VAV_5 ZONE EQUIPMENT OUTLET NODE,VAV_5
! <#Nodes on Return Air Path>,<Number of Nodes>
! <Return Air Path Node>,<Node Type>,<Node Count>,<Node Name>,<AirLoopHVAC Name>
   #Nodes on Return Air Path,16
   Return Air Path Node,Outlet Node,1,VAV_5 ZONE EQUIPMENT OUTLET NODE,VAV_5
   Return Air Path Node,Inlet Node,2,PER1NOR OUTLET NODE,VAV_5
   Return Air Path Node,Inlet Node,3,PER1EAS OUTLET NODE,VAV_5
   Return Air Path Node,Inlet Node,4,PER1SOU OUTLET NODE,VAV_5
   Return Air Path Node,Inlet Node,5,PER1WES OUTLET NODE,VAV_5
   Return Air Path Node,Inlet Node,6,COR1 OUTLET NODE,VAV_5
   Return Air Path Node,Inlet Node,7,PER2NOR OUTLET NODE,VAV_5
   Return Air Path Node,Inlet Node,8,PER2EAS OUTLET NODE,VAV_5
   Return Air Path Node,Inlet Node,9,PER2SOU OUTLET NODE,VAV_5
   Return Air Path Node,Inlet Node,10,PER2WES OUTLET NODE,VAV_5
   Return Air Path Node,Inlet Node,11,COR2 OUTLET NODE,VAV_5
   Return Air Path Node,Inlet Node,12,PER3NOR OUTLET NODE,VAV_5
   Return Air Path Node,Inlet Node,13,PER3EAS OUTLET NODE,VAV_5
   Return Air Path Node,Inlet Node,14,PER3SOU OUTLET NODE,VAV_5
   Return Air Path Node,Inlet Node,15,PER3WES OUTLET NODE,VAV_5
   Return Air Path Node,Inlet Node,16,COR3 OUTLET NODE,VAV_5
! ===============================================================
! #Outdoor Air Nodes,<Number of Outdoor Air Nodes>
 #Outdoor Air Nodes,2                   
! <Outdoor Air Node>,<NodeNumber>,<Node Name>
 Outdoor Air Node,1,VAV_5_OAINLET NODE
 Outdoor Air Node,105,TOWERWATERSYS COOLTOWER OA REF NODE
! ===============================================================
! <#Component Sets>,<Number of Component Sets>
 #Component Sets,75
! <Component Set>,<Component Set Count>,<Parent Object Type>,<Parent Object Name>,<Component Type>,<Component Name>,<Inlet Node ID>,<Outlet Node ID>,<Description>
 Component Set,1,BRANCH,VAV_5 AIR LOOP MAIN BRANCH,FAN:VARIABLEVOLUME,VAV_RETURN_FAN,VAV_5 SUPPLY EQUIPMENT INLET NODE,VAV_5 OA_SYS_INLET NODE,Air Nodes
 Component Set,2,BRANCH,VAV_5 AIR LOOP MAIN BRANCH,AIRLOOPHVAC:OUTDOORAIRSYSTEM,VAV_5_OA,VAV_5 OA_SYS_INLET NODE,MIXED AIR NODE 1,Air Nodes
 Component Set,3,BRANCH,VAV_5 AIR LOOP MAIN BRANCH,COIL:COOLING:WATER,MAIN COOLING COIL 1,MIXED AIR NODE 1,COOLING COIL AIR OUTLET NODE,Air Nodes
 Component Set,4,BRANCH,VAV_5 AIR LOOP MAIN BRANCH,COIL:HEATING:WATER,MAIN HEATING COIL 1,COOLING COIL AIR OUTLET NODE,HEATING COIL AIR OUTLET NODE,Air Nodes
 Component Set,5,BRANCH,VAV_5 AIR LOOP MAIN BRANCH,FAN:VARIABLEVOLUME,VAV_SUPPLY_FAN,HEATING COIL AIR OUTLET NODE,AIR LOOP OUTLET NODE 1,Air Nodes
 Component Set,6,BRANCH,HEATSYS1 SUPPLY INLET BRANCH,PUMP:VARIABLESPEED,HEATSYS1 PUMP,HEATSYS1 SUPPLY INLET NODE,BOILER INLET NODEVIACONNECTOR,Water Nodes
 Component Set,7,BRANCH,HEATSYS1 SUPPLY EQUIPMENT BRANCH,BOILER:HOTWATER,HEATSYS1 BOILER,BOILER INLET NODE,BOILER OUTLET NODE,Hot Water Nodes
 Component Set,8,BRANCH,HEATSYS1 SUPPLY EQUIPMENT BYPASS BRANCH,PIPE:ADIABATIC,HEATSYS1 SUPPLY EQUIPMENT BYPASS PIPE,HEATSYS1 SUPPLY EQUIP BYPASS INLET NODE,HEATSYS1 SUPPLY EQUIP BYPASS OUTLET NODE,Pipe Nodes
 Component Set,9,BRANCH,HEATSYS1 SUPPLY OUTLET BRANCH,PIPE:ADIABATIC,HEATSYS1 SUPPLY OUTLET PIPE,HEATSYS1 SUPPLY MIXER-HEATSYS1 SUPPLY OUTLET PIPE,HEATSYS1 SUPPLY OUTLET NODE,Pipe Nodes
 Component Set,10,BRANCH,HEATSYS1 DEMAND INLET BRANCH,PIPE:ADIABATIC,HEATSYS1 DEMAND INLET PIPE,HEATSYS1 DEMAND INLET NODE,HEATSYS1 DEMAND INLET PIPE-HEATSYS1 DEMAND MIXER,Pipe Nodes
 Component Set,11,BRANCH,ZONE 1 REHEAT BRANCH,COIL:HEATING:WATER,REHEAT COIL ZONE 1,ZONE 1 REHEAT WATER INLET NODE,ZONE 1 REHEAT WATER OUTLET NODE,Water Nodes
 Component Set,12,BRANCH,ZONE 2 REHEAT BRANCH,COIL:HEATING:WATER,REHEAT COIL ZONE 2,ZONE 2 REHEAT WATER INLET NODE,ZONE 2 REHEAT WATER OUTLET NODE,Water Nodes
 Component Set,13,BRANCH,ZONE 3 REHEAT BRANCH,COIL:HEATING:WATER,REHEAT COIL ZONE 3,ZONE 3 REHEAT WATER INLET NODE,ZONE 3 REHEAT WATER OUTLET NODE,Water Nodes
 Component Set,14,BRANCH,ZONE 4 REHEAT BRANCH,COIL:HEATING:WATER,REHEAT COIL ZONE 4,ZONE 4 REHEAT WATER INLET NODE,ZONE 4 REHEAT WATER OUTLET NODE,Water Nodes
 Component Set,15,BRANCH,ZONE 5 REHEAT BRANCH,COIL:HEATING:WATER,REHEAT COIL ZONE 5,ZONE 5 REHEAT WATER INLET NODE,ZONE 5 REHEAT WATER OUTLET NODE,Water Nodes
 Component Set,16,BRANCH,ZONE 6 REHEAT BRANCH,COIL:HEATING:WATER,REHEAT COIL ZONE 6,ZONE 6 REHEAT WATER INLET NODE,ZONE 6 REHEAT WATER OUTLET NODE,Water Nodes
 Component Set,17,BRANCH,ZONE 7 REHEAT BRANCH,COIL:HEATING:WATER,REHEAT COIL ZONE 7,ZONE 7 REHEAT WATER INLET NODE,ZONE 7 REHEAT WATER OUTLET NODE,Water Nodes
 Component Set,18,BRANCH,ZONE 8 REHEAT BRANCH,COIL:HEATING:WATER,REHEAT COIL ZONE 8,ZONE 8 REHEAT WATER INLET NODE,ZONE 8 REHEAT WATER OUTLET NODE,Water Nodes
 Component Set,19,BRANCH,ZONE 9 REHEAT BRANCH,COIL:HEATING:WATER,REHEAT COIL ZONE 9,ZONE 9 REHEAT WATER INLET NODE,ZONE 9 REHEAT WATER OUTLET NODE,Water Nodes
 Component Set,20,BRANCH,ZONE 10 REHEAT BRANCH,COIL:HEATING:WATER,REHEAT COIL ZONE 10,ZONE 10 REHEAT WATER INLET NODE,ZONE 10 REHEAT WATER OUTLET NODE,Water Nodes
 Component Set,21,BRANCH,ZONE 11 REHEAT BRANCH,COIL:HEATING:WATER,REHEAT COIL ZONE 11,ZONE 11 REHEAT WATER INLET NODE,ZONE 11 REHEAT WATER OUTLET NODE,Water Nodes
 Component Set,22,BRANCH,ZONE 12 REHEAT BRANCH,COIL:HEATING:WATER,REHEAT COIL ZONE 12,ZONE 12 REHEAT WATER INLET NODE,ZONE 12 REHEAT WATER OUTLET NODE,Water Nodes
 Component Set,23,BRANCH,ZONE 13 REHEAT BRANCH,COIL:HEATING:WATER,REHEAT COIL ZONE 13,ZONE 13 REHEAT WATER INLET NODE,ZONE 13 REHEAT WATER OUTLET NODE,Water Nodes
 Component Set,24,BRANCH,ZONE 14 REHEAT BRANCH,COIL:HEATING:WATER,REHEAT COIL ZONE 14,ZONE 14 REHEAT WATER INLET NODE,ZONE 14 REHEAT WATER OUTLET NODE,Water Nodes
 Component Set,25,BRANCH,ZONE 15 REHEAT BRANCH,COIL:HEATING:WATER,REHEAT COIL ZONE 15,ZONE 15 REHEAT WATER INLET NODE,ZONE 15 REHEAT WATER OUTLET NODE,Water Nodes
 Component Set,26,BRANCH,MAIN HEAT COIL BRANCH,COIL:HEATING:WATER,MAIN HEATING COIL 1,HEATING COIL WATER INLET NODE,HEATING COIL WATER OUTLET NODE,Water Nodes
 Component Set,27,BRANCH,HEATSYS1 DEMAND BYPASS BRANCH,PIPE:ADIABATIC,HEATSYS1 DEMAND BYPASS PIPE,HEATSYS1 DEMAND BYPASS PIPE INLET NODE,HEATSYS1 DEMAND BYPASS PIPE OUTLET NODE,Pipe Nodes
 Component Set,28,BRANCH,HEATSYS1 DEMAND OUTLET BRANCH,PIPE:ADIABATIC,HEATSYS1 DEMAND OUTLET PIPE,HEATSYS1 DEMAND MIXER-HEATSYS1 DEMAND OUTLET PIPE,HEATSYS1 DEMAND OUTLET NODE,Pipe Nodes
 Component Set,29,BRANCH,COOLSYS1 SUPPLY INLET BRANCH,PUMP:VARIABLESPEED,COOLSYS1 PUMP,COOLSYS1 SUPPLY INLET NODE,COOLSYS1 INLET NODEVIACONNECTOR,Water Nodes
 Component Set,30,BRANCH,COOLSYS1 SUPPLY EQUIPMENT BRANCH,CHILLER:ELECTRIC:EIR,COOLSYS1 CHILLER,COOLSYS1 INLET NODE,COOLSYS1 OUTLET NODE,Chilled Water Nodes
 Component Set,31,BRANCH,COOLSYS1 SUPPLY EQUIPMENT BYPASS BRANCH,PIPE:ADIABATIC,COOLSYS1 SUPPLY EQUIPMENT BYPASS PIPE,COOLSYS1 SUPPLY EQUIP BYPASS INLET NODE,COOLSYS1 SUPPLY EQUIP BYPASS OUTLET NODE,Pipe Nodes
 Component Set,32,BRANCH,COOLSYS1 SUPPLY OUTLET BRANCH,PIPE:ADIABATIC,COOLSYS1 SUPPLY OUTLET PIPE,COOLSYS1 SUPPLY MIXER-COOLSYS1 SUPPLY OUTLET PIPE,COOLSYS1 SUPPLY OUTLET NODE,Pipe Nodes
 Component Set,33,BRANCH,COOLSYS1 DEMAND INLET BRANCH,PIPE:ADIABATIC,COOLSYS1 DEMAND INLET PIPE,COOLSYS1 DEMAND INLET NODE,COOLSYS1 DEMAND INLET PIPE-COOLSYS1 DEMAND MIXER,Pipe Nodes
 Component Set,34,BRANCH,COOLSYS1 DEMAND LOAD BRANCH 1,COIL:COOLING:WATER,MAIN COOLING COIL 1,COOLING COIL WATER INLET NODE,COOLING COIL WATER OUTLET NODE,Water Nodes
 Component Set,35,BRANCH,COOLSYS1 DEMAND BYPASS BRANCH,PIPE:ADIABATIC,COOLSYS1 DEMAND BYPASS PIPE,COOLSYS1 DEMAND BYPASS PIPE INLET NODE,COOLSYS1 DEMAND BYPASS PIPE OUTLET NODE,Pipe Nodes
 Component Set,36,BRANCH,COOLSYS1 DEMAND OUTLET BRANCH,PIPE:ADIABATIC,COOLSYS1 DEMAND OUTLET PIPE,COOLSYS1 DEMAND MIXER-COOLSYS1 DEMAND OUTLET PIPE,COOLSYS1 DEMAND OUTLET NODE,Pipe Nodes
 Component Set,37,BRANCH,TOWERWATERSYS SUPPLY INLET BRANCH,PUMP:CONSTANTSPEED,TOWERWATERSYS PUMP,CONDENSER LOOP SUPPLY INLET NODE,CONDENSER TOWER INLET NODEVIACONNECTOR,Water Nodes
 Component Set,38,BRANCH,TOWERWATERSYS SUPPLY EQUIPMENT BRANCH,COOLINGTOWER:SINGLESPEED,TOWERWATERSYS COOLTOWER,CONDENSER TOWER INLET NODE,CONDENSER TOWER OUTLET NODE,Chilled Water Nodes
 Component Set,39,BRANCH,TOWERWATERSYS SUPPLY EQUIPMENT BYPASS BRANCH,PIPE:ADIABATIC,TOWERWATERSYS SUPPLY EQUIPMENT BYPASS PIPE,TOWERWATERSYS SUPPLY EQUIP BYPASS INLET NODE,TOWERWATERSYS SUPPLY EQUIP BYPASS OUTLET NODE,Pipe Nodes
 Component Set,40,BRANCH,TOWERWATERSYS SUPPLY OUTLET BRANCH,PIPE:ADIABATIC,TOWERWATERSYS SUPPLY OUTLET PIPE,TOWERWATERSYS SUPPLY MIXER-TOWERWATERSYS SUPPLY OUTLET PIPE,TOWERWATERSYS SUPPLY OUTLET NODE,Pipe Nodes
 Component Set,41,BRANCH,TOWERWATERSYS DEMAND INLET BRANCH,PIPE:ADIABATIC,TOWERWATERSYS DEMAND INLET PIPE,TOWERWATERSYS DEMAND INLET NODE,TOWERWATERSYS DEMAND INLET PIPE-TOWERWATERSYS DEMAND MIXER,Pipe Nodes
 Component Set,42,BRANCH,TOWERWATERSYS DEMAND LOAD BRANCH 1,CHILLER:ELECTRIC:EIR,COOLSYS1 CHILLER,COOLSYS1 CONDENSER WATER INLET NODE,COOLSYS1 CONDENSER WATER OUTLET NODE,Condenser Water Nodes
 Component Set,43,BRANCH,TOWERWATERSYS DEMAND BYPASS BRANCH,PIPE:ADIABATIC,TOWERWATERSYS DEMAND BYPASS PIPE,TOWERWATERSYS DEMAND BYPASS PIPE INLET NODE,TOWERWATERSYS DEMAND BYPASS PIPE OUTLET NODE,Pipe Nodes
 Component Set,44,BRANCH,TOWERWATERSYS DEMAND OUTLET BRANCH,PIPE:ADIABATIC,TOWERWATERSYS DEMAND OUTLET PIPE,TOWERWATERSYS DEMAND MIXER-TOWERWATERSYS DEMAND OUTLET PIPE,TOWERWATERSYS DEMAND OUTLET NODE,Pipe Nodes
 Component Set,45,ZONEHVAC:AIRDISTRIBUTIONUNIT,PER3NOR AHU,AIRTERMINAL:SINGLEDUCT:VAV:REHEAT,PER3NOR VAV SYSTEM,ZONE 1 DAMPER INLET NODE,PER3NOR INLET NODE,Air Nodes
 Component Set,46,ZONEHVAC:AIRDISTRIBUTIONUNIT,PER3EAS AHU,AIRTERMINAL:SINGLEDUCT:VAV:REHEAT,PER3EAS VAV SYSTEM,ZONE 2 DAMPER INLET NODE,PER3EAS INLET NODE,Air Nodes
 Component Set,47,ZONEHVAC:AIRDISTRIBUTIONUNIT,PER3SOU AHU,AIRTERMINAL:SINGLEDUCT:VAV:REHEAT,PER3SOU VAV SYSTEM,ZONE 3 DAMPER INLET NODE,PER3SOU INLET NODE,Air Nodes
 Component Set,48,ZONEHVAC:AIRDISTRIBUTIONUNIT,PER3WES AHU,AIRTERMINAL:SINGLEDUCT:VAV:REHEAT,PER3WES VAV SYSTEM,ZONE 4 DAMPER INLET NODE,PER3WES INLET NODE,Air Nodes
 Component Set,49,ZONEHVAC:AIRDISTRIBUTIONUNIT,COR3 AHU,AIRTERMINAL:SINGLEDUCT:VAV:REHEAT,COR3 VAV SYSTEM,ZONE 5 DAMPER INLET NODE,COR3 INLET NODE,Air Nodes
 Component Set,50,ZONEHVAC:AIRDISTRIBUTIONUNIT,PER1NOR AHU,AIRTERMINAL:SINGLEDUCT:VAV:REHEAT,PER1NOR VAV SYSTEM,ZONE 6 DAMPER INLET NODE,PER1NOR INLET NODE,Air Nodes
 Component Set,51,ZONEHVAC:AIRDISTRIBUTIONUNIT,PER1EAS AHU,AIRTERMINAL:SINGLEDUCT:VAV:REHEAT,PER1EAS VAV SYSTEM,ZONE 7 DAMPER INLET NODE,PER1EAS INLET NODE,Air Nodes
 Component Set,52,ZONEHVAC:AIRDISTRIBUTIONUNIT,PER1SOU AHU,AIRTERMINAL:SINGLEDUCT:VAV:REHEAT,PER1SOU VAV SYSTEM,ZONE 8 DAMPER INLET NODE,PER1SOU INLET NODE,Air Nodes
 Component Set,53,ZONEHVAC:AIRDISTRIBUTIONUNIT,PER1WES AHU,AIRTERMINAL:SINGLEDUCT:VAV:REHEAT,PER1WES VAV SYSTEM,ZONE 9 DAMPER INLET NODE,PER1WES INLET NODE,Air Nodes
 Component Set,54,ZONEHVAC:AIRDISTRIBUTIONUNIT,COR1 AHU,AIRTERMINAL:SINGLEDUCT:VAV:REHEAT,COR1 VAV SYSTEM,ZONE 10 DAMPER INLET NODE,COR1 INLET NODE,Air Nodes
 Component Set,55,ZONEHVAC:AIRDISTRIBUTIONUNIT,PER2NOR AHU,AIRTERMINAL:SINGLEDUCT:VAV:REHEAT,PER2NOR VAV SYSTEM,ZONE 11 DAMPER INLET NODE,PER2NOR INLET NODE,Air Nodes
 Component Set,56,ZONEHVAC:AIRDISTRIBUTIONUNIT,PER2EAS AHU,AIRTERMINAL:SINGLEDUCT:VAV:REHEAT,PER2EAS VAV SYSTEM,ZONE 12 DAMPER INLET NODE,PER2EAS INLET NODE,Air Nodes
 Component Set,57,ZONEHVAC:AIRDISTRIBUTIONUNIT,PER2SOU AHU,AIRTERMINAL:SINGLEDUCT:VAV:REHEAT,PER2SOU VAV SYSTEM,ZONE 13 DAMPER INLET NODE,PER2SOU INLET NODE,Air Nodes
 Component Set,58,ZONEHVAC:AIRDISTRIBUTIONUNIT,PER2WES AHU,AIRTERMINAL:SINGLEDUCT:VAV:REHEAT,PER2WES VAV SYSTEM,ZONE 14 DAMPER INLET NODE,PER2WES INLET NODE,Air Nodes
 Component Set,59,ZONEHVAC:AIRDISTRIBUTIONUNIT,COR2 AHU,AIRTERMINAL:SINGLEDUCT:VAV:REHEAT,COR2 VAV SYSTEM,ZONE 15 DAMPER INLET NODE,COR2 INLET NODE,Air Nodes
 Component Set,60,AIRTERMINAL:SINGLEDUCT:VAV:REHEAT,PER3NOR VAV SYSTEM,COIL:HEATING:WATER,REHEAT COIL ZONE 1,ZONE 1 REHEAT AIR INLET NODE,PER3NOR INLET NODE,Air Nodes
 Component Set,61,AIRTERMINAL:SINGLEDUCT:VAV:REHEAT,PER3EAS VAV SYSTEM,COIL:HEATING:WATER,REHEAT COIL ZONE 2,ZONE 2 REHEAT AIR INLET NODE,PER3EAS INLET NODE,Air Nodes
 Component Set,62,AIRTERMINAL:SINGLEDUCT:VAV:REHEAT,PER3SOU VAV SYSTEM,COIL:HEATING:WATER,REHEAT COIL ZONE 3,ZONE 3 REHEAT AIR INLET NODE,PER3SOU INLET NODE,Air Nodes
 Component Set,63,AIRTERMINAL:SINGLEDUCT:VAV:REHEAT,PER3WES VAV SYSTEM,COIL:HEATING:WATER,REHEAT COIL ZONE 4,ZONE 4 REHEAT AIR INLET NODE,PER3WES INLET NODE,Air Nodes
 Component Set,64,AIRTERMINAL:SINGLEDUCT:VAV:REHEAT,COR3 VAV SYSTEM,COIL:HEATING:WATER,REHEAT COIL ZONE 5,ZONE 5 REHEAT AIR INLET NODE,COR3 INLET NODE,Air Nodes
 Component Set,65,AIRTERMINAL:SINGLEDUCT:VAV:REHEAT,PER1NOR VAV SYSTEM,COIL:HEATING:WATER,REHEAT COIL ZONE 6,ZONE 6 REHEAT AIR INLET NODE,PER1NOR INLET NODE,Air Nodes
 Component Set,66,AIRTERMINAL:SINGLEDUCT:VAV:REHEAT,PER1EAS VAV SYSTEM,COIL:HEATING:WATER,REHEAT COIL ZONE 7,ZONE 7 REHEAT AIR INLET NODE,PER1EAS INLET NODE,Air Nodes
 Component Set,67,AIRTERMINAL:SINGLEDUCT:VAV:REHEAT,PER1SOU VAV SYSTEM,COIL:HEATING:WATER,REHEAT COIL ZONE 8,ZONE 8 REHEAT AIR INLET NODE,PER1SOU INLET NODE,Air Nodes
 Component Set,68,AIRTERMINAL:SINGLEDUCT:VAV:REHEAT,PER1WES VAV SYSTEM,COIL:HEATING:WATER,REHEAT COIL ZONE 9,ZONE 9 REHEAT AIR INLET NODE,PER1WES INLET NODE,Air Nodes
 Component Set,69,AIRTERMINAL:SINGLEDUCT:VAV:REHEAT,COR1 VAV SYSTEM,COIL:HEATING:WATER,REHEAT COIL ZONE 10,ZONE 10 REHEAT AIR INLET NODE,COR1 INLET NODE,Air Nodes
 Component Set,70,AIRTERMINAL:SINGLEDUCT:VAV:REHEAT,PER2NOR VAV SYSTEM,COIL:HEATING:WATER,REHEAT COIL ZONE 11,ZONE 11 REHEAT AIR INLET NODE,PER2NOR INLET NODE,Air Nodes
 Component Set,71,AIRTERMINAL:SINGLEDUCT:VAV:REHEAT,PER2EAS VAV SYSTEM,COIL:HEATING:WATER,REHEAT COIL ZONE 12,ZONE 12 REHEAT AIR INLET NODE,PER2EAS INLET NODE,Air Nodes
 Component Set,72,AIRTERMINAL:SINGLEDUCT:VAV:REHEAT,PER2SOU VAV SYSTEM,COIL:HEATING:WATER,REHEAT COIL ZONE 13,ZONE 13 REHEAT AIR INLET NODE,PER2SOU INLET NODE,Air Nodes
 Component Set,73,AIRTERMINAL:SINGLEDUCT:VAV:REHEAT,PER2WES VAV SYSTEM,COIL:HEATING:WATER,REHEAT COIL ZONE 14,ZONE 14 REHEAT AIR INLET NODE,PER2WES INLET NODE,Air Nodes
 Component Set,74,AIRTERMINAL:SINGLEDUCT:VAV:REHEAT,COR2 VAV SYSTEM,COIL:HEATING:WATER,REHEAT COIL ZONE 15,ZONE 15 REHEAT AIR INLET NODE,COR2 INLET NODE,Air Nodes
 Component Set,75,AIRLOOPHVAC:OUTDOORAIRSYSTEM,VAV_5_OA,OUTDOORAIR:MIXER,VAV_5_OAMIXING BOX,VAV_5_OAINLET NODE,MIXED AIR NODE 1,Air Nodes
! ===============================================================
! <# Plant Loops>,<Number of Plant Loops>
 #Plant Loops,2
! <Plant Loop>,<Plant Loop Name>,<Loop Type>,<Inlet Node Name>,<Outlet Node Name>,<Branch List>,<Connector List>
! <Plant Loop Connector>,<Connector Type>,<Connector Name>,<Loop Name>,<Loop Type>,<Number of Inlets/Outlets>
! <Plant Loop Connector Branches>,<Connector Node Count>,<Connector Type>,<Connector Name>,<Inlet Branch>,<Outlet Branch>,<Loop Name>,<Loop Type>
! <Plant Loop Connector Nodes>,<Connector Node Count>,<Connector Type>,<Connector Name>,<Inlet Node>,<Outlet Node>,<Loop Name>,<Loop Type>
! <Plant Loop Supply Connection>,<Plant Loop Name>,<Supply Side Outlet Node Name>,<Demand Side Inlet Node Name>
! <Plant Loop Return Connection>,<Plant Loop Name>,<Demand Side Outlet Node Name>,<Supply Side Inlet Node Name>
 Plant Loop,HEATSYS1,Demand,HEATSYS1 DEMAND INLET NODE,HEATSYS1 DEMAND OUTLET NODE,HEATSYS1 DEMAND BRANCHES,HEATSYS1 DEMAND CONNECTORS
   Plant Loop Connector,Splitter,HEATSYS1 DEMAND SPLITTER,HEATSYS1,Demand,17
     Plant Loop Connector Branches,1,Splitter,HEATSYS1 DEMAND SPLITTER,HEATSYS1 DEMAND INLET BRANCH,ZONE 1 REHEAT BRANCH,HEATSYS1,Demand
     Plant Loop Connector Nodes,   1,Splitter,HEATSYS1 DEMAND SPLITTER,HEATSYS1 DEMAND INLET PIPE-HEATSYS1 DEMAND MIXER,ZONE 1 REHEAT WATER INLET NODE,HEATSYS1,Demand
     Plant Loop Connector Branches,2,Splitter,HEATSYS1 DEMAND SPLITTER,HEATSYS1 DEMAND INLET BRANCH,ZONE 2 REHEAT BRANCH,HEATSYS1,Demand
     Plant Loop Connector Nodes,   2,Splitter,HEATSYS1 DEMAND SPLITTER,HEATSYS1 DEMAND INLET PIPE-HEATSYS1 DEMAND MIXER,ZONE 2 REHEAT WATER INLET NODE,HEATSYS1,Demand
     Plant Loop Connector Branches,3,Splitter,HEATSYS1 DEMAND SPLITTER,HEATSYS1 DEMAND INLET BRANCH,ZONE 3 REHEAT BRANCH,HEATSYS1,Demand
     Plant Loop Connector Nodes,   3,Splitter,HEATSYS1 DEMAND SPLITTER,HEATSYS1 DEMAND INLET PIPE-HEATSYS1 DEMAND MIXER,ZONE 3 REHEAT WATER INLET NODE,HEATSYS1,Demand
     Plant Loop Connector Branches,4,Splitter,HEATSYS1 DEMAND SPLITTER,HEATSYS1 DEMAND INLET BRANCH,ZONE 4 REHEAT BRANCH,HEATSYS1,Demand
     Plant Loop Connector Nodes,   4,Splitter,HEATSYS1 DEMAND SPLITTER,HEATSYS1 DEMAND INLET PIPE-HEATSYS1 DEMAND MIXER,ZONE 4 REHEAT WATER INLET NODE,HEATSYS1,Demand
     Plant Loop Connector Branches,5,Splitter,HEATSYS1 DEMAND SPLITTER,HEATSYS1 DEMAND INLET BRANCH,ZONE 5 REHEAT BRANCH,HEATSYS1,Demand
     Plant Loop Connector Nodes,   5,Splitter,HEATSYS1 DEMAND SPLITTER,HEATSYS1 DEMAND INLET PIPE-HEATSYS1 DEMAND MIXER,ZONE 5 REHEAT WATER INLET NODE,HEATSYS1,Demand
     Plant Loop Connector Branches,6,Splitter,HEATSYS1 DEMAND SPLITTER,HEATSYS1 DEMAND INLET BRANCH,ZONE 6 REHEAT BRANCH,HEATSYS1,Demand
     Plant Loop Connector Nodes,   6,Splitter,HEATSYS1 DEMAND SPLITTER,HEATSYS1 DEMAND INLET PIPE-HEATSYS1 DEMAND MIXER,ZONE 6 REHEAT WATER INLET NODE,HEATSYS1,Demand
     Plant Loop Connector Branches,7,Splitter,HEATSYS1 DEMAND SPLITTER,HEATSYS1 DEMAND INLET BRANCH,ZONE 7 REHEAT BRANCH,HEATSYS1,Demand
     Plant Loop Connector Nodes,   7,Splitter,HEATSYS1 DEMAND SPLITTER,HEATSYS1 DEMAND INLET PIPE-HEATSYS1 DEMAND MIXER,ZONE 7 REHEAT WATER INLET NODE,HEATSYS1,Demand
     Plant Loop Connector Branches,8,Splitter,HEATSYS1 DEMAND SPLITTER,HEATSYS1 DEMAND INLET BRANCH,ZONE 8 REHEAT BRANCH,HEATSYS1,Demand
     Plant Loop Connector Nodes,   8,Splitter,HEATSYS1 DEMAND SPLITTER,HEATSYS1 DEMAND INLET PIPE-HEATSYS1 DEMAND MIXER,ZONE 8 REHEAT WATER INLET NODE,HEATSYS1,Demand
     Plant Loop Connector Branches,9,Splitter,HEATSYS1 DEMAND SPLITTER,HEATSYS1 DEMAND INLET BRANCH,ZONE 9 REHEAT BRANCH,HEATSYS1,Demand
     Plant Loop Connector Nodes,   9,Splitter,HEATSYS1 DEMAND SPLITTER,HEATSYS1 DEMAND INLET PIPE-HEATSYS1 DEMAND MIXER,ZONE 9 REHEAT WATER INLET NODE,HEATSYS1,Demand
     Plant Loop Connector Branches,10,Splitter,HEATSYS1 DEMAND SPLITTER,HEATSYS1 DEMAND INLET BRANCH,ZONE 10 REHEAT BRANCH,HEATSYS1,Demand
     Plant Loop Connector Nodes,   10,Splitter,HEATSYS1 DEMAND SPLITTER,HEATSYS1 DEMAND INLET PIPE-HEATSYS1 DEMAND MIXER,ZONE 10 REHEAT WATER INLET NODE,HEATSYS1,Demand
     Plant Loop Connector Branches,11,Splitter,HEATSYS1 DEMAND SPLITTER,HEATSYS1 DEMAND INLET BRANCH,ZONE 11 REHEAT BRANCH,HEATSYS1,Demand
     Plant Loop Connector Nodes,   11,Splitter,HEATSYS1 DEMAND SPLITTER,HEATSYS1 DEMAND INLET PIPE-HEATSYS1 DEMAND MIXER,ZONE 11 REHEAT WATER INLET NODE,HEATSYS1,Demand
     Plant Loop Connector Branches,12,Splitter,HEATSYS1 DEMAND SPLITTER,HEATSYS1 DEMAND INLET BRANCH,ZONE 12 REHEAT BRANCH,HEATSYS1,Demand
     Plant Loop Connector Nodes,   12,Splitter,HEATSYS1 DEMAND SPLITTER,HEATSYS1 DEMAND INLET PIPE-HEATSYS1 DEMAND MIXER,ZONE 12 REHEAT WATER INLET NODE,HEATSYS1,Demand
     Plant Loop Connector Branches,13,Splitter,HEATSYS1 DEMAND SPLITTER,HEATSYS1 DEMAND INLET BRANCH,ZONE 13 REHEAT BRANCH,HEATSYS1,Demand
     Plant Loop Connector Nodes,   13,Splitter,HEATSYS1 DEMAND SPLITTER,HEATSYS1 DEMAND INLET PIPE-HEATSYS1 DEMAND MIXER,ZONE 13 REHEAT WATER INLET NODE,HEATSYS1,Demand
     Plant Loop Connector Branches,14,Splitter,HEATSYS1 DEMAND SPLITTER,HEATSYS1 DEMAND INLET BRANCH,ZONE 14 REHEAT BRANCH,HEATSYS1,Demand
     Plant Loop Connector Nodes,   14,Splitter,HEATSYS1 DEMAND SPLITTER,HEATSYS1 DEMAND INLET PIPE-HEATSYS1 DEMAND MIXER,ZONE 14 REHEAT WATER INLET NODE,HEATSYS1,Demand
     Plant Loop Connector Branches,15,Splitter,HEATSYS1 DEMAND SPLITTER,HEATSYS1 DEMAND INLET BRANCH,ZONE 15 REHEAT BRANCH,HEATSYS1,Demand
     Plant Loop Connector Nodes,   15,Splitter,HEATSYS1 DEMAND SPLITTER,HEATSYS1 DEMAND INLET PIPE-HEATSYS1 DEMAND MIXER,ZONE 15 REHEAT WATER INLET NODE,HEATSYS1,Demand
     Plant Loop Connector Branches,16,Splitter,HEATSYS1 DEMAND SPLITTER,HEATSYS1 DEMAND INLET BRANCH,MAIN HEAT COIL BRANCH,HEATSYS1,Demand
     Plant Loop Connector Nodes,   16,Splitter,HEATSYS1 DEMAND SPLITTER,HEATSYS1 DEMAND INLET PIPE-HEATSYS1 DEMAND MIXER,HEATING COIL WATER INLET NODE,HEATSYS1,Demand
     Plant Loop Connector Branches,17,Splitter,HEATSYS1 DEMAND SPLITTER,HEATSYS1 DEMAND INLET BRANCH,HEATSYS1 DEMAND BYPASS BRANCH,HEATSYS1,Demand
     Plant Loop Connector Nodes,   17,Splitter,HEATSYS1 DEMAND SPLITTER,HEATSYS1 DEMAND INLET PIPE-HEATSYS1 DEMAND MIXER,HEATSYS1 DEMAND BYPASS PIPE INLET NODE,HEATSYS1,Demand
   Plant Loop Connector,Mixer,HEATSYS1 DEMAND MIXER,HEATSYS1,Demand,17
     Plant Loop Connector Branches,1,Mixer,HEATSYS1 DEMAND MIXER,ZONE 1 REHEAT BRANCH,HEATSYS1 DEMAND OUTLET BRANCH,HEATSYS1,Demand
     Plant Loop Connector Nodes,   1,Mixer,HEATSYS1 DEMAND MIXER,ZONE 1 REHEAT WATER OUTLET NODE,HEATSYS1 DEMAND MIXER-HEATSYS1 DEMAND OUTLET PIPE,HEATSYS1,Demand
     Plant Loop Connector Branches,2,Mixer,HEATSYS1 DEMAND MIXER,ZONE 2 REHEAT BRANCH,HEATSYS1 DEMAND OUTLET BRANCH,HEATSYS1,Demand
     Plant Loop Connector Nodes,   2,Mixer,HEATSYS1 DEMAND MIXER,ZONE 2 REHEAT WATER OUTLET NODE,HEATSYS1 DEMAND MIXER-HEATSYS1 DEMAND OUTLET PIPE,HEATSYS1,Demand
     Plant Loop Connector Branches,3,Mixer,HEATSYS1 DEMAND MIXER,ZONE 3 REHEAT BRANCH,HEATSYS1 DEMAND OUTLET BRANCH,HEATSYS1,Demand
     Plant Loop Connector Nodes,   3,Mixer,HEATSYS1 DEMAND MIXER,ZONE 3 REHEAT WATER OUTLET NODE,HEATSYS1 DEMAND MIXER-HEATSYS1 DEMAND OUTLET PIPE,HEATSYS1,Demand
     Plant Loop Connector Branches,4,Mixer,HEATSYS1 DEMAND MIXER,ZONE 4 REHEAT BRANCH,HEATSYS1 DEMAND OUTLET BRANCH,HEATSYS1,Demand
     Plant Loop Connector Nodes,   4,Mixer,HEATSYS1 DEMAND MIXER,ZONE 4 REHEAT WATER OUTLET NODE,HEATSYS1 DEMAND MIXER-HEATSYS1 DEMAND OUTLET PIPE,HEATSYS1,Demand
     Plant Loop Connector Branches,5,Mixer,HEATSYS1 DEMAND MIXER,ZONE 5 REHEAT BRANCH,HEATSYS1 DEMAND OUTLET BRANCH,HEATSYS1,Demand
     Plant Loop Connector Nodes,   5,Mixer,HEATSYS1 DEMAND MIXER,ZONE 5 REHEAT WATER OUTLET NODE,HEATSYS1 DEMAND MIXER-HEATSYS1 DEMAND OUTLET PIPE,HEATSYS1,Demand
     Plant Loop Connector Branches,6,Mixer,HEATSYS1 DEMAND MIXER,ZONE 6 REHEAT BRANCH,HEATSYS1 DEMAND OUTLET BRANCH,HEATSYS1,Demand
     Plant Loop Connector Nodes,   6,Mixer,HEATSYS1 DEMAND MIXER,ZONE 6 REHEAT WATER OUTLET NODE,HEATSYS1 DEMAND MIXER-HEATSYS1 DEMAND OUTLET PIPE,HEATSYS1,Demand
     Plant Loop Connector Branches,7,Mixer,HEATSYS1 DEMAND MIXER,ZONE 7 REHEAT BRANCH,HEATSYS1 DEMAND OUTLET BRANCH,HEATSYS1,Demand
     Plant Loop Connector Nodes,   7,Mixer,HEATSYS1 DEMAND MIXER,ZONE 7 REHEAT WATER OUTLET NODE,HEATSYS1 DEMAND MIXER-HEATSYS1 DEMAND OUTLET PIPE,HEATSYS1,Demand
     Plant Loop Connector Branches,8,Mixer,HEATSYS1 DEMAND MIXER,ZONE 8 REHEAT BRANCH,HEATSYS1 DEMAND OUTLET BRANCH,HEATSYS1,Demand
     Plant Loop Connector Nodes,   8,Mixer,HEATSYS1 DEMAND MIXER,ZONE 8 REHEAT WATER OUTLET NODE,HEATSYS1 DEMAND MIXER-HEATSYS1 DEMAND OUTLET PIPE,HEATSYS1,Demand
     Plant Loop Connector Branches,9,Mixer,HEATSYS1 DEMAND MIXER,ZONE 9 REHEAT BRANCH,HEATSYS1 DEMAND OUTLET BRANCH,HEATSYS1,Demand
     Plant Loop Connector Nodes,   9,Mixer,HEATSYS1 DEMAND MIXER,ZONE 9 REHEAT WATER OUTLET NODE,HEATSYS1 DEMAND MIXER-HEATSYS1 DEMAND OUTLET PIPE,HEATSYS1,Demand
     Plant Loop Connector Branches,10,Mixer,HEATSYS1 DEMAND MIXER,ZONE 10 REHEAT BRANCH,HEATSYS1 DEMAND OUTLET BRANCH,HEATSYS1,Demand
     Plant Loop Connector Nodes,   10,Mixer,HEATSYS1 DEMAND MIXER,ZONE 10 REHEAT WATER OUTLET NODE,HEATSYS1 DEMAND MIXER-HEATSYS1 DEMAND OUTLET PIPE,HEATSYS1,Demand
     Plant Loop Connector Branches,11,Mixer,HEATSYS1 DEMAND MIXER,ZONE 11 REHEAT BRANCH,HEATSYS1 DEMAND OUTLET BRANCH,HEATSYS1,Demand
     Plant Loop Connector Nodes,   11,Mixer,HEATSYS1 DEMAND MIXER,ZONE 11 REHEAT WATER OUTLET NODE,HEATSYS1 DEMAND MIXER-HEATSYS1 DEMAND OUTLET PIPE,HEATSYS1,Demand
     Plant Loop Connector Branches,12,Mixer,HEATSYS1 DEMAND MIXER,ZONE 12 REHEAT BRANCH,HEATSYS1 DEMAND OUTLET BRANCH,HEATSYS1,Demand
     Plant Loop Connector Nodes,   12,Mixer,HEATSYS1 DEMAND MIXER,ZONE 12 REHEAT WATER OUTLET NODE,HEATSYS1 DEMAND MIXER-HEATSYS1 DEMAND OUTLET PIPE,HEATSYS1,Demand
     Plant Loop Connector Branches,13,Mixer,HEATSYS1 DEMAND MIXER,ZONE 13 REHEAT BRANCH,HEATSYS1 DEMAND OUTLET BRANCH,HEATSYS1,Demand
     Plant Loop Connector Nodes,   13,Mixer,HEATSYS1 DEMAND MIXER,ZONE 13 REHEAT WATER OUTLET NODE,HEATSYS1 DEMAND MIXER-HEATSYS1 DEMAND OUTLET PIPE,HEATSYS1,Demand
     Plant Loop Connector Branches,14,Mixer,HEATSYS1 DEMAND MIXER,ZONE 14 REHEAT BRANCH,HEATSYS1 DEMAND OUTLET BRANCH,HEATSYS1,Demand
     Plant Loop Connector Nodes,   14,Mixer,HEATSYS1 DEMAND MIXER,ZONE 14 REHEAT WATER OUTLET NODE,HEATSYS1 DEMAND MIXER-HEATSYS1 DEMAND OUTLET PIPE,HEATSYS1,Demand
     Plant Loop Connector Branches,15,Mixer,HEATSYS1 DEMAND MIXER,ZONE 15 REHEAT BRANCH,HEATSYS1 DEMAND OUTLET BRANCH,HEATSYS1,Demand
     Plant Loop Connector Nodes,   15,Mixer,HEATSYS1 DEMAND MIXER,ZONE 15 REHEAT WATER OUTLET NODE,HEATSYS1 DEMAND MIXER-HEATSYS1 DEMAND OUTLET PIPE,HEATSYS1,Demand
     Plant Loop Connector Branches,16,Mixer,HEATSYS1 DEMAND MIXER,MAIN HEAT COIL BRANCH,HEATSYS1 DEMAND OUTLET BRANCH,HEATSYS1,Demand
     Plant Loop Connector Nodes,   16,Mixer,HEATSYS1 DEMAND MIXER,HEATING COIL WATER OUTLET NODE,HEATSYS1 DEMAND MIXER-HEATSYS1 DEMAND OUTLET PIPE,HEATSYS1,Demand
     Plant Loop Connector Branches,17,Mixer,HEATSYS1 DEMAND MIXER,HEATSYS1 DEMAND BYPASS BRANCH,HEATSYS1 DEMAND OUTLET BRANCH,HEATSYS1,Demand
     Plant Loop Connector Nodes,   17,Mixer,HEATSYS1 DEMAND MIXER,HEATSYS1 DEMAND BYPASS PIPE OUTLET NODE,HEATSYS1 DEMAND MIXER-HEATSYS1 DEMAND OUTLET PIPE,HEATSYS1,Demand
 Plant Loop,HEATSYS1,Supply,HEATSYS1 SUPPLY INLET NODE,HEATSYS1 SUPPLY OUTLET NODE,HEATSYS1 SUPPLY BRANCHES,HEATSYS1 SUPPLY CONNECTORS
   Plant Loop Connector,Splitter,HEATSYS1 SUPPLY SPLITTER,HEATSYS1,Supply,2
     Plant Loop Connector Branches,1,Splitter,HEATSYS1 SUPPLY SPLITTER,HEATSYS1 SUPPLY INLET BRANCH,HEATSYS1 SUPPLY EQUIPMENT BRANCH,HEATSYS1,Supply
     Plant Loop Connector Nodes,   1,Splitter,HEATSYS1 SUPPLY SPLITTER,BOILER INLET NODEVIACONNECTOR,BOILER INLET NODE,HEATSYS1,Supply
     Plant Loop Connector Branches,2,Splitter,HEATSYS1 SUPPLY SPLITTER,HEATSYS1 SUPPLY INLET BRANCH,HEATSYS1 SUPPLY EQUIPMENT BYPASS BRANCH,HEATSYS1,Supply
     Plant Loop Connector Nodes,   2,Splitter,HEATSYS1 SUPPLY SPLITTER,BOILER INLET NODEVIACONNECTOR,HEATSYS1 SUPPLY EQUIP BYPASS INLET NODE,HEATSYS1,Supply
   Plant Loop Connector,Mixer,HEATSYS1 SUPPLY MIXER,HEATSYS1,Supply,2
     Plant Loop Connector Branches,1,Mixer,HEATSYS1 SUPPLY MIXER,HEATSYS1 SUPPLY EQUIPMENT BRANCH,HEATSYS1 SUPPLY OUTLET BRANCH,HEATSYS1,Supply
     Plant Loop Connector Nodes,   1,Mixer,HEATSYS1 SUPPLY MIXER,BOILER OUTLET NODE,HEATSYS1 SUPPLY MIXER-HEATSYS1 SUPPLY OUTLET PIPE,HEATSYS1,Supply
     Plant Loop Connector Branches,2,Mixer,HEATSYS1 SUPPLY MIXER,HEATSYS1 SUPPLY EQUIPMENT BYPASS BRANCH,HEATSYS1 SUPPLY OUTLET BRANCH,HEATSYS1,Supply
     Plant Loop Connector Nodes,   2,Mixer,HEATSYS1 SUPPLY MIXER,HEATSYS1 SUPPLY EQUIP BYPASS OUTLET NODE,HEATSYS1 SUPPLY MIXER-HEATSYS1 SUPPLY OUTLET PIPE,HEATSYS1,Supply
 Plant Loop Supply Connection,HEATSYS1,HEATSYS1 SUPPLY OUTLET NODE,HEATSYS1 DEMAND INLET NODE
 Plant Loop Return Connection,HEATSYS1,HEATSYS1 DEMAND OUTLET NODE,HEATSYS1 SUPPLY INLET NODE
 Plant Loop,COOLSYS1,Demand,COOLSYS1 DEMAND INLET NODE,COOLSYS1 DEMAND OUTLET NODE,COOLSYS1 DEMAND BRANCHES,COOLSYS1 DEMAND CONNECTORS
   Plant Loop Connector,Splitter,COOLSYS1 DEMAND SPLITTER,COOLSYS1,Demand,2
     Plant Loop Connector Branches,1,Splitter,COOLSYS1 DEMAND SPLITTER,COOLSYS1 DEMAND INLET BRANCH,COOLSYS1 DEMAND LOAD BRANCH 1,COOLSYS1,Demand
     Plant Loop Connector Nodes,   1,Splitter,COOLSYS1 DEMAND SPLITTER,COOLSYS1 DEMAND INLET PIPE-COOLSYS1 DEMAND MIXER,COOLING COIL WATER INLET NODE,COOLSYS1,Demand
     Plant Loop Connector Branches,2,Splitter,COOLSYS1 DEMAND SPLITTER,COOLSYS1 DEMAND INLET BRANCH,COOLSYS1 DEMAND BYPASS BRANCH,COOLSYS1,Demand
     Plant Loop Connector Nodes,   2,Splitter,COOLSYS1 DEMAND SPLITTER,COOLSYS1 DEMAND INLET PIPE-COOLSYS1 DEMAND MIXER,COOLSYS1 DEMAND BYPASS PIPE INLET NODE,COOLSYS1,Demand
   Plant Loop Connector,Mixer,COOLSYS1 DEMAND MIXER,COOLSYS1,Demand,2
     Plant Loop Connector Branches,1,Mixer,COOLSYS1 DEMAND MIXER,COOLSYS1 DEMAND LOAD BRANCH 1,COOLSYS1 DEMAND OUTLET BRANCH,COOLSYS1,Demand
     Plant Loop Connector Nodes,   1,Mixer,COOLSYS1 DEMAND MIXER,COOLING COIL WATER OUTLET NODE,COOLSYS1 DEMAND MIXER-COOLSYS1 DEMAND OUTLET PIPE,COOLSYS1,Demand
     Plant Loop Connector Branches,2,Mixer,COOLSYS1 DEMAND MIXER,COOLSYS1 DEMAND BYPASS BRANCH,COOLSYS1 DEMAND OUTLET BRANCH,COOLSYS1,Demand
     Plant Loop Connector Nodes,   2,Mixer,COOLSYS1 DEMAND MIXER,COOLSYS1 DEMAND BYPASS PIPE OUTLET NODE,COOLSYS1 DEMAND MIXER-COOLSYS1 DEMAND OUTLET PIPE,COOLSYS1,Demand
 Plant Loop,COOLSYS1,Supply,COOLSYS1 SUPPLY INLET NODE,COOLSYS1 SUPPLY OUTLET NODE,COOLSYS1 SUPPLY BRANCHES,COOLSYS1 SUPPLY CONNECTORS
   Plant Loop Connector,Splitter,COOLSYS1 SUPPLY SPLITTER,COOLSYS1,Supply,2
     Plant Loop Connector Branches,1,Splitter,COOLSYS1 SUPPLY SPLITTER,COOLSYS1 SUPPLY INLET BRANCH,COOLSYS1 SUPPLY EQUIPMENT BRANCH,COOLSYS1,Supply
     Plant Loop Connector Nodes,   1,Splitter,COOLSYS1 SUPPLY SPLITTER,COOLSYS1 INLET NODEVIACONNECTOR,COOLSYS1 INLET NODE,COOLSYS1,Supply
     Plant Loop Connector Branches,2,Splitter,COOLSYS1 SUPPLY SPLITTER,COOLSYS1 SUPPLY INLET BRANCH,COOLSYS1 SUPPLY EQUIPMENT BYPASS BRANCH,COOLSYS1,Supply
     Plant Loop Connector Nodes,   2,Splitter,COOLSYS1 SUPPLY SPLITTER,COOLSYS1 INLET NODEVIACONNECTOR,COOLSYS1 SUPPLY EQUIP BYPASS INLET NODE,COOLSYS1,Supply
   Plant Loop Connector,Mixer,COOLSYS1 SUPPLY MIXER,COOLSYS1,Supply,2
     Plant Loop Connector Branches,1,Mixer,COOLSYS1 SUPPLY MIXER,COOLSYS1 SUPPLY EQUIPMENT BRANCH,COOLSYS1 SUPPLY OUTLET BRANCH,COOLSYS1,Supply
     Plant Loop Connector Nodes,   1,Mixer,COOLSYS1 SUPPLY MIXER,COOLSYS1 OUTLET NODE,COOLSYS1 SUPPLY MIXER-COOLSYS1 SUPPLY OUTLET PIPE,COOLSYS1,Supply
     Plant Loop Connector Branches,2,Mixer,COOLSYS1 SUPPLY MIXER,COOLSYS1 SUPPLY EQUIPMENT BYPASS BRANCH,COOLSYS1 SUPPLY OUTLET BRANCH,COOLSYS1,Supply
     Plant Loop Connector Nodes,   2,Mixer,COOLSYS1 SUPPLY MIXER,COOLSYS1 SUPPLY EQUIP BYPASS OUTLET NODE,COOLSYS1 SUPPLY MIXER-COOLSYS1 SUPPLY OUTLET PIPE,COOLSYS1,Supply
 Plant Loop Supply Connection,COOLSYS1,COOLSYS1 SUPPLY OUTLET NODE,COOLSYS1 DEMAND INLET NODE
 Plant Loop Return Connection,COOLSYS1,COOLSYS1 DEMAND OUTLET NODE,COOLSYS1 SUPPLY INLET NODE
! ===============================================================
! <# Condenser Loops>,<Number of Condenser Loops>
 #Condenser Loops,1
! <Condenser Loop>,<Condenser Loop Name>,<Loop Type>,<Inlet Node Name>,<Outlet Node Name>,<Branch List>,<Connector List>
! <Condenser Loop Connector>,<Connector Type>,<Connector Name>,<Loop Name>,<Loop Type>,<Number of Inlets/Outlets>
! <Condenser Loop Connector Branches>,<Connector Node Count>,<Connector Type>,<Connector Name>,<Inlet Branch>,<Outlet Branch>,<Loop Name>,<Loop Type>
! <Condenser Loop Connector Nodes>,<Connector Node Count>,<Connector Type>,<Connector Name>,<Inlet Node>,<Outlet Node>,<Loop Name>,<Loop Type>
! <Condenser Loop Supply Connection>,<Condenser Loop Name>,<Supply Side Outlet Node Name>,<Demand Side Inlet Node Name>
! <Condenser Loop Return Connection>,<Condenser Loop Name>,<Demand Side Outlet Node Name>,<Supply Side Inlet Node Name>
 Condenser Loop,TOWERWATERSYS,Supply,CONDENSER LOOP SUPPLY INLET NODE,TOWERWATERSYS SUPPLY OUTLET NODE,TOWERWATERSYS SUPPLY BRANCHES,TOWERWATERSYS SUPPLY CONNECTORS
   Condenser Loop Connector,Splitter,TOWERWATERSYS SUPPLY SPLITTER,TOWERWATERSYS,Supply,2
     Condenser Loop Connector Branches,1,Splitter,TOWERWATERSYS SUPPLY SPLITTER,TOWERWATERSYS SUPPLY INLET BRANCH,TOWERWATERSYS SUPPLY EQUIPMENT BRANCH,TOWERWATERSYS,Supply
     Condenser Loop Connector Nodes,   1,Splitter,TOWERWATERSYS SUPPLY SPLITTER,CONDENSER TOWER INLET NODEVIACONNECTOR,CONDENSER TOWER INLET NODE,TOWERWATERSYS,Supply
     Condenser Loop Connector Branches,2,Splitter,TOWERWATERSYS SUPPLY SPLITTER,TOWERWATERSYS SUPPLY INLET BRANCH,TOWERWATERSYS SUPPLY EQUIPMENT BYPASS BRANCH,TOWERWATERSYS,Supply
     Condenser Loop Connector Nodes,   2,Splitter,TOWERWATERSYS SUPPLY SPLITTER,CONDENSER TOWER INLET NODEVIACONNECTOR,TOWERWATERSYS SUPPLY EQUIP BYPASS INLET NODE,TOWERWATERSYS,Supply
   Condenser Loop Connector,Mixer,TOWERWATERSYS SUPPLY MIXER,TOWERWATERSYS,Supply,2
     Condenser Loop Connector Branches,1,Mixer,TOWERWATERSYS SUPPLY MIXER,TOWERWATERSYS SUPPLY EQUIPMENT BRANCH,TOWERWATERSYS SUPPLY OUTLET BRANCH,TOWERWATERSYS,Supply
     Condenser Loop Connector Nodes,   1,Mixer,TOWERWATERSYS SUPPLY MIXER,CONDENSER TOWER OUTLET NODE,TOWERWATERSYS SUPPLY MIXER-TOWERWATERSYS SUPPLY OUTLET PIPE,TOWERWATERSYS,Supply
     Condenser Loop Connector Branches,2,Mixer,TOWERWATERSYS SUPPLY MIXER,TOWERWATERSYS SUPPLY EQUIPMENT BYPASS BRANCH,TOWERWATERSYS SUPPLY OUTLET BRANCH,TOWERWATERSYS,Supply
     Condenser Loop Connector Nodes,   2,Mixer,TOWERWATERSYS SUPPLY MIXER,TOWERWATERSYS SUPPLY EQUIP BYPASS OUTLET NODE,TOWERWATERSYS SUPPLY MIXER-TOWERWATERSYS SUPPLY OUTLET PIPE,TOWERWATERSYS,Supply
 Condenser Loop,TOWERWATERSYS,Demand,TOWERWATERSYS DEMAND INLET NODE,TOWERWATERSYS DEMAND OUTLET NODE,TOWERWATERSYS DEMAND BRANCHES,TOWERWATERSYS DEMAND CONNECTORS
   Condenser Loop Connector,Splitter,TOWERWATERSYS DEMAND SPLITTER,TOWERWATERSYS,Demand,2
     Condenser Loop Connector Branches,1,Splitter,TOWERWATERSYS DEMAND SPLITTER,TOWERWATERSYS DEMAND INLET BRANCH,TOWERWATERSYS DEMAND LOAD BRANCH 1,TOWERWATERSYS,Demand
     Condenser Loop Connector Nodes,   1,Splitter,TOWERWATERSYS DEMAND SPLITTER,TOWERWATERSYS DEMAND INLET PIPE-TOWERWATERSYS DEMAND MIXER,COOLSYS1 CONDENSER WATER INLET NODE,TOWERWATERSYS,Demand
     Condenser Loop Connector Branches,2,Splitter,TOWERWATERSYS DEMAND SPLITTER,TOWERWATERSYS DEMAND INLET BRANCH,TOWERWATERSYS DEMAND BYPASS BRANCH,TOWERWATERSYS,Demand
     Condenser Loop Connector Nodes,   2,Splitter,TOWERWATERSYS DEMAND SPLITTER,TOWERWATERSYS DEMAND INLET PIPE-TOWERWATERSYS DEMAND MIXER,TOWERWATERSYS DEMAND BYPASS PIPE INLET NODE,TOWERWATERSYS,Demand
   Condenser Loop Connector,Mixer,TOWERWATERSYS DEMAND MIXER,TOWERWATERSYS,Demand,2
     Condenser Loop Connector Branches,1,Mixer,TOWERWATERSYS DEMAND MIXER,TOWERWATERSYS DEMAND LOAD BRANCH 1,TOWERWATERSYS DEMAND OUTLET BRANCH,TOWERWATERSYS,Demand
     Condenser Loop Connector Nodes,   1,Mixer,TOWERWATERSYS DEMAND MIXER,COOLSYS1 CONDENSER WATER OUTLET NODE,TOWERWATERSYS DEMAND MIXER-TOWERWATERSYS DEMAND OUTLET PIPE,TOWERWATERSYS,Demand
     Condenser Loop Connector Branches,2,Mixer,TOWERWATERSYS DEMAND MIXER,TOWERWATERSYS DEMAND BYPASS BRANCH,TOWERWATERSYS DEMAND OUTLET BRANCH,TOWERWATERSYS,Demand
     Condenser Loop Connector Nodes,   2,Mixer,TOWERWATERSYS DEMAND MIXER,TOWERWATERSYS DEMAND BYPASS PIPE OUTLET NODE,TOWERWATERSYS DEMAND MIXER-TOWERWATERSYS DEMAND OUTLET PIPE,TOWERWATERSYS,Demand
 Condenser Loop Supply Connection,TOWERWATERSYS,TOWERWATERSYS SUPPLY OUTLET NODE,TOWERWATERSYS DEMAND INLET NODE
 Condenser Loop Return Connection,TOWERWATERSYS,TOWERWATERSYS DEMAND OUTLET NODE,CONDENSER LOOP SUPPLY INLET NODE
! ===============================================================
! <# Controlled Zones>,<Number of Controlled Zones>
 #Controlled Zones,15
! <Controlled Zone>,<Controlled Zone Name>,<Equip List Name>,<Control List Name>,<Zone Node Name>,<Return Air Node Name>,<# Inlet Nodes>,<# Exhaust Nodes>
! <Controlled Zone Inlet>,<Inlet Node Count>,<Controlled Zone Name>,<Supply Air Inlet Node Name>,<SD Sys:Cooling/Heating [DD:Cooling] Inlet Node Name>,<DD Sys:Heating Inlet Node Name>
! <Controlled Zone Exhaust>,<Exhaust Node Count>,<Controlled Zone Name>,<Exhaust Air Node Name>
 Controlled Zone,PERIM-1-NORTH,PER1NOREQUIPMENT,,PER1NOR NODE,PER1NOR OUTLET NODE,1,0
   Controlled Zone Inlet,1,PERIM-1-NORTH,PER1NOR INLET NODE,ZONE 6 DAMPER INLET NODE,N/A
 Controlled Zone,PERIM-1-EAST,PER1EASEQUIPMENT,,PER1EAS NODE,PER1EAS OUTLET NODE,1,0
   Controlled Zone Inlet,1,PERIM-1-EAST,PER1EAS INLET NODE,ZONE 7 DAMPER INLET NODE,N/A
 Controlled Zone,PERIM-1-SOUTH,PER1SOUEQUIPMENT,,PER1SOU NODE,PER1SOU OUTLET NODE,1,0
   Controlled Zone Inlet,1,PERIM-1-SOUTH,PER1SOU INLET NODE,ZONE 8 DAMPER INLET NODE,N/A
 Controlled Zone,PERIM-1-WEST,PER1WESEQUIPMENT,,PER1WES NODE,PER1WES OUTLET NODE,1,0
   Controlled Zone Inlet,1,PERIM-1-WEST,PER1WES INLET NODE,ZONE 9 DAMPER INLET NODE,N/A
 Controlled Zone,CORE-1,COR1EQUIPMENT,,COR1 NODE,COR1 OUTLET NODE,1,0
   Controlled Zone Inlet,1,CORE-1,COR1 INLET NODE,ZONE 10 DAMPER INLET NODE,N/A
 Controlled Zone,PERIM-2-NORTH,PER2NOREQUIPMENT,,PER2NOR NODE,PER2NOR OUTLET NODE,1,0
   Controlled Zone Inlet,1,PERIM-2-NORTH,PER2NOR INLET NODE,ZONE 11 DAMPER INLET NODE,N/A
 Controlled Zone,PERIM-2-EAST,PER2EASEQUIPMENT,,PER2EAS NODE,PER2EAS OUTLET NODE,1,0
   Controlled Zone Inlet,1,PERIM-2-EAST,PER2EAS INLET NODE,ZONE 12 DAMPER INLET NODE,N/A
 Controlled Zone,PERIM-2-SOUTH,PER2SOUEQUIPMENT,,PER2SOU NODE,PER2SOU OUTLET NODE,1,0
   Controlled Zone Inlet,1,PERIM-2-SOUTH,PER2SOU INLET NODE,ZONE 13 DAMPER INLET NODE,N/A
 Controlled Zone,PERIM-2-WEST,PER2WESEQUIPMENT,,PER2WES NODE,PER2WES OUTLET NODE,1,0
   Controlled Zone Inlet,1,PERIM-2-WEST,PER2WES INLET NODE,ZONE 14 DAMPER INLET NODE,N/A
 Controlled Zone,CORE-2,COR2EQUIPMENT,,COR2 NODE,COR2 OUTLET NODE,1,0
   Controlled Zone Inlet,1,CORE-2,COR2 INLET NODE,ZONE 15 DAMPER INLET NODE,N/A
 Controlled Zone,PERIM-3-NORTH,PER3NOREQUIPMENT,,PER3NOR NODE,PER3NOR OUTLET NODE,1,0
   Controlled Zone Inlet,1,PERIM-3-NORTH,PER3NOR INLET NODE,ZONE 1 DAMPER INLET NODE,N/A
 Controlled Zone,PERIM-3-EAST,PER3EASEQUIPMENT,,PER3EAS NODE,PER3EAS OUTLET NODE,1,0
   Controlled Zone Inlet,1,PERIM-3-EAST,PER3EAS INLET NODE,ZONE 2 DAMPER INLET NODE,N/A
 Controlled Zone,PERIM-3-SOUTH,PER3SOUEQUIPMENT,,PER3SOU NODE,PER3SOU OUTLET NODE,1,0
   Controlled Zone Inlet,1,PERIM-3-SOUTH,PER3SOU INLET NODE,ZONE 3 DAMPER INLET NODE,N/A
 Controlled Zone,PERIM-3-WEST,PER3WESEQUIPMENT,,PER3WES NODE,PER3WES OUTLET NODE,1,0
   Controlled Zone Inlet,1,PERIM-3-WEST,PER3WES INLET NODE,ZONE 4 DAMPER INLET NODE,N/A
 Controlled Zone,CORE-3,COR3EQUIPMENT,,COR3 NODE,COR3 OUTLET NODE,1,0
   Controlled Zone Inlet,1,CORE-3,COR3 INLET NODE,ZONE 5 DAMPER INLET NODE,N/A
! ===============================================================
! <#Zone Equipment Lists>,<Number of Zone Equipment Lists>
 #Zone Equipment Lists,15
! <Zone Equipment List>,<Zone Equipment List Count>,<Zone Equipment List Name>,<Zone Name>,<Number of Components>
! <Zone Equipment Component>,<Component Count>,<Component Type>,<Component Name>,<Zone Name>,<Heating Priority>,<Cooling Priority>
 Zone Equipment List,1,PER1NOREQUIPMENT,PERIM-1-NORTH,1
   Zone Equipment Component,1,ZONEHVAC:AIRDISTRIBUTIONUNIT,PER1NOR AHU,PERIM-1-NORTH,1,1
 Zone Equipment List,2,PER1EASEQUIPMENT,PERIM-1-EAST,1
   Zone Equipment Component,1,ZONEHVAC:AIRDISTRIBUTIONUNIT,PER1EAS AHU,PERIM-1-EAST,1,1
 Zone Equipment List,3,PER1SOUEQUIPMENT,PERIM-1-SOUTH,1
   Zone Equipment Component,1,ZONEHVAC:AIRDISTRIBUTIONUNIT,PER1SOU AHU,PERIM-1-SOUTH,1,1
 Zone Equipment List,4,PER1WESEQUIPMENT,PERIM-1-WEST,1
   Zone Equipment Component,1,ZONEHVAC:AIRDISTRIBUTIONUNIT,PER1WES AHU,PERIM-1-WEST,1,1
 Zone Equipment List,5,COR1EQUIPMENT,CORE-1,1
   Zone Equipment Component,1,ZONEHVAC:AIRDISTRIBUTIONUNIT,COR1 AHU,CORE-1,1,1
 Zone Equipment List,6,PER2NOREQUIPMENT,PERIM-2-NORTH,1
   Zone Equipment Component,1,ZONEHVAC:AIRDISTRIBUTIONUNIT,PER2NOR AHU,PERIM-2-NORTH,1,1
 Zone Equipment List,7,PER2EASEQUIPMENT,PERIM-2-EAST,1
   Zone Equipment Component,1,ZONEHVAC:AIRDISTRIBUTIONUNIT,PER2EAS AHU,PERIM-2-EAST,1,1
 Zone Equipment List,8,PER2SOUEQUIPMENT,PERIM-2-SOUTH,1
   Zone Equipment Component,1,ZONEHVAC:AIRDISTRIBUTIONUNIT,PER2SOU AHU,PERIM-2-SOUTH,1,1
 Zone Equipment List,9,PER2WESEQUIPMENT,PERIM-2-WEST,1
   Zone Equipment Component,1,ZONEHVAC:AIRDISTRIBUTIONUNIT,PER2WES AHU,PERIM-2-WEST,1,1
 Zone Equipment List,10,COR2EQUIPMENT,CORE-2,1
   Zone Equipment Component,1,ZONEHVAC:AIRDISTRIBUTIONUNIT,COR2 AHU,CORE-2,1,1
 Zone Equipment List,11,PER3NOREQUIPMENT,PERIM-3-NORTH,1
   Zone Equipment Component,1,ZONEHVAC:AIRDISTRIBUTIONUNIT,PER3NOR AHU,PERIM-3-NORTH,1,1
 Zone Equipment List,12,PER3EASEQUIPMENT,PERIM-3-EAST,1
   Zone Equipment Component,1,ZONEHVAC:AIRDISTRIBUTIONUNIT,PER3EAS AHU,PERIM-3-EAST,1,1
 Zone Equipment List,13,PER3SOUEQUIPMENT,PERIM-3-SOUTH,1
   Zone Equipment Component,1,ZONEHVAC:AIRDISTRIBUTIONUNIT,PER3SOU AHU,PERIM-3-SOUTH,1,1
 Zone Equipment List,14,PER3WESEQUIPMENT,PERIM-3-WEST,1
   Zone Equipment Component,1,ZONEHVAC:AIRDISTRIBUTIONUNIT,PER3WES AHU,PERIM-3-WEST,1,1
 Zone Equipment List,15,COR3EQUIPMENT,CORE-3,1
   Zone Equipment Component,1,ZONEHVAC:AIRDISTRIBUTIONUNIT,COR3 AHU,CORE-3,1,1
! ===============================================================
! <#Dual Duct Damper Connections>,<Number of Dual Duct Damper Connections>
 #Dual Duct Damper Connections,0
! <Dual Duct Damper>,<Dual Duct Damper Count>,<Dual Duct Damper Name>,<Inlet Node>,<Outlet Node>,<Inlet Node Type>,<AirLoopHVAC Name>
! ===============================================================
! <#AirLoopHVACs>,<Number of AirLoopHVACs>
 #AirLoopHVACs,1
! <AirLoopHVAC>,<Air Loop Name>,<# Return Nodes>,<# Supply Nodes>,<# Zones Cooled>,<# Zones Heated>,<Outdoor Air Used>
! <AirLoop Return Connections>,<Connection Count>,<AirLoopHVAC Name>,<Zn Eqp Return Node #>,<Zn Eqp Return Node Name>,<AirLoop Return Node #>,<Air Loop Return Node Name>
! <AirLoop Supply Connections>,<Connection Count>,<AirLoopHVAC Name>,<Zn Eqp Supply Node #>,<Zn Eqp Supply Node Name>,<AirLoop Supply Node #>,<Air Loop Supply Node Name>
! <Cooled Zone Info>,<Cooled Zone Count>,<Cooled Zone Name>,<Cooled Zone Inlet Node #>,<Cooled Zone Inlet Node Name>,<AirLoopHVAC Name>
! <Heated Zone Info>,<Heated Zone Count>,<Heated Zone Name>,<Heated Zone Inlet Node #>,<Heated Zone Inlet Node Name>,<AirLoopHVAC Name>
! <Outdoor Air Connections>,<OA Inlet Node #>,<OA Return Air Inlet Node Name>,<OA Outlet Node #>,<OA Mixed Air Outlet Node Name>,<AirLoopHVAC Name>
! <AirLoopHVAC Connector>,<Connector Type>,<Connector Name>,<Loop Name>,<Loop Type>,<Number of Inlets/Outlets>
! <AirLoopHVAC Connector Branches>,<Connector Node Count>,<Connector Type>,<Connector Name>,<Inlet Branch>,<Outlet Branch>,<Loop Name>,<Loop Type>
! <AirLoopHVAC Connector Nodes>,<Connector Node Count>,<Connector Type>,<Connector Name>,<Inlet Node>,<Outlet Node>,<Loop Name>,<Loop Type>
 AirLoopHVAC,VAV_5,1,1,15,0,Yes
   AirLoop Return Connections,1,VAV_5,137,VAV_5 ZONE EQUIPMENT OUTLET NODE,23,VAV_5 SUPPLY EQUIPMENT INLET NODE
   AirLoop Supply Connections,1,VAV_5,136,VAV_5 ZONE EQUIPMENT INLET NODE,19,AIR LOOP OUTLET NODE 1
   Cooled Zone Info,1,PERIM-3-NORTH,2,PER3NOR INLET NODE,VAV_5
   Cooled Zone Info,2,PERIM-3-EAST,3,PER3EAS INLET NODE,VAV_5
   Cooled Zone Info,3,PERIM-3-SOUTH,4,PER3SOU INLET NODE,VAV_5
   Cooled Zone Info,4,PERIM-3-WEST,5,PER3WES INLET NODE,VAV_5
   Cooled Zone Info,5,CORE-3,6,COR3 INLET NODE,VAV_5
   Cooled Zone Info,6,PERIM-1-NORTH,7,PER1NOR INLET NODE,VAV_5
   Cooled Zone Info,7,PERIM-1-EAST,8,PER1EAS INLET NODE,VAV_5
   Cooled Zone Info,8,PERIM-1-SOUTH,9,PER1SOU INLET NODE,VAV_5
   Cooled Zone Info,9,PERIM-1-WEST,10,PER1WES INLET NODE,VAV_5
   Cooled Zone Info,10,CORE-1,11,COR1 INLET NODE,VAV_5
   Cooled Zone Info,11,PERIM-2-NORTH,12,PER2NOR INLET NODE,VAV_5
   Cooled Zone Info,12,PERIM-2-EAST,13,PER2EAS INLET NODE,VAV_5
   Cooled Zone Info,13,PERIM-2-SOUTH,14,PER2SOU INLET NODE,VAV_5
   Cooled Zone Info,14,PERIM-2-WEST,15,PER2WES INLET NODE,VAV_5
   Cooled Zone Info,15,CORE-2,16,COR2 INLET NODE,VAV_5
   Outdoor Air Connections,24,VAV_5 OA_SYS_INLET NODE,17,MIXED AIR NODE 1,VAV_5
! ===============================================================
! <#Parent Node Connections>,<Number of Parent Node Connections>
 #Parent Node Connections,134
! <Parent Node Connection>,<Node Name>,<Node ObjectType>,<Node ObjectName>,<Node ConnectionType>,<Node FluidStream>
 Parent Node Connection,VAV_5 SUPPLY EQUIPMENT INLET NODE,BRANCH,VAV_5 AIR LOOP MAIN BRANCH,Inlet,1
 Parent Node Connection,VAV_5 OA_SYS_INLET NODE,BRANCH,VAV_5 AIR LOOP MAIN BRANCH,Internal,1
 Parent Node Connection,MIXED AIR NODE 1,BRANCH,VAV_5 AIR LOOP MAIN BRANCH,Internal,1
 Parent Node Connection,COOLING COIL AIR OUTLET NODE,BRANCH,VAV_5 AIR LOOP MAIN BRANCH,Internal,1
 Parent Node Connection,HEATING COIL AIR OUTLET NODE,BRANCH,VAV_5 AIR LOOP MAIN BRANCH,Internal,1
 Parent Node Connection,AIR LOOP OUTLET NODE 1,BRANCH,VAV_5 AIR LOOP MAIN BRANCH,Outlet,1
 Parent Node Connection,HEATSYS1 SUPPLY INLET NODE,BRANCH,HEATSYS1 SUPPLY INLET BRANCH,Inlet,1
 Parent Node Connection,BOILER INLET NODEVIACONNECTOR,BRANCH,HEATSYS1 SUPPLY INLET BRANCH,Outlet,1
 Parent Node Connection,BOILER INLET NODE,BRANCH,HEATSYS1 SUPPLY EQUIPMENT BRANCH,Inlet,1
 Parent Node Connection,BOILER OUTLET NODE,BRANCH,HEATSYS1 SUPPLY EQUIPMENT BRANCH,Outlet,1
 Parent Node Connection,HEATSYS1 SUPPLY EQUIP BYPASS INLET NODE,BRANCH,HEATSYS1 SUPPLY EQUIPMENT BYPASS BRANCH,Inlet,1
 Parent Node Connection,HEATSYS1 SUPPLY EQUIP BYPASS OUTLET NODE,BRANCH,HEATSYS1 SUPPLY EQUIPMENT BYPASS BRANCH,Outlet,1
 Parent Node Connection,HEATSYS1 SUPPLY MIXER-HEATSYS1 SUPPLY OUTLET PIPE,BRANCH,HEATSYS1 SUPPLY OUTLET BRANCH,Inlet,1
 Parent Node Connection,HEATSYS1 SUPPLY OUTLET NODE,BRANCH,HEATSYS1 SUPPLY OUTLET BRANCH,Outlet,1
 Parent Node Connection,HEATSYS1 DEMAND INLET NODE,BRANCH,HEATSYS1 DEMAND INLET BRANCH,Inlet,1
 Parent Node Connection,HEATSYS1 DEMAND INLET PIPE-HEATSYS1 DEMAND MIXER,BRANCH,HEATSYS1 DEMAND INLET BRANCH,Outlet,1
 Parent Node Connection,ZONE 1 REHEAT WATER INLET NODE,BRANCH,ZONE 1 REHEAT BRANCH,Inlet,1
 Parent Node Connection,ZONE 1 REHEAT WATER OUTLET NODE,BRANCH,ZONE 1 REHEAT BRANCH,Outlet,1
 Parent Node Connection,ZONE 2 REHEAT WATER INLET NODE,BRANCH,ZONE 2 REHEAT BRANCH,Inlet,1
 Parent Node Connection,ZONE 2 REHEAT WATER OUTLET NODE,BRANCH,ZONE 2 REHEAT BRANCH,Outlet,1
 Parent Node Connection,ZONE 3 REHEAT WATER INLET NODE,BRANCH,ZONE 3 REHEAT BRANCH,Inlet,1
 Parent Node Connection,ZONE 3 REHEAT WATER OUTLET NODE,BRANCH,ZONE 3 REHEAT BRANCH,Outlet,1
 Parent Node Connection,ZONE 4 REHEAT WATER INLET NODE,BRANCH,ZONE 4 REHEAT BRANCH,Inlet,1
 Parent Node Connection,ZONE 4 REHEAT WATER OUTLET NODE,BRANCH,ZONE 4 REHEAT BRANCH,Outlet,1
 Parent Node Connection,ZONE 5 REHEAT WATER INLET NODE,BRANCH,ZONE 5 REHEAT BRANCH,Inlet,1
 Parent Node Connection,ZONE 5 REHEAT WATER OUTLET NODE,BRANCH,ZONE 5 REHEAT BRANCH,Outlet,1
 Parent Node Connection,ZONE 6 REHEAT WATER INLET NODE,BRANCH,ZONE 6 REHEAT BRANCH,Inlet,1
 Parent Node Connection,ZONE 6 REHEAT WATER OUTLET NODE,BRANCH,ZONE 6 REHEAT BRANCH,Outlet,1
 Parent Node Connection,ZONE 7 REHEAT WATER INLET NODE,BRANCH,ZONE 7 REHEAT BRANCH,Inlet,1
 Parent Node Connection,ZONE 7 REHEAT WATER OUTLET NODE,BRANCH,ZONE 7 REHEAT BRANCH,Outlet,1
 Parent Node Connection,ZONE 8 REHEAT WATER INLET NODE,BRANCH,ZONE 8 REHEAT BRANCH,Inlet,1
 Parent Node Connection,ZONE 8 REHEAT WATER OUTLET NODE,BRANCH,ZONE 8 REHEAT BRANCH,Outlet,1
 Parent Node Connection,ZONE 9 REHEAT WATER INLET NODE,BRANCH,ZONE 9 REHEAT BRANCH,Inlet,1
 Parent Node Connection,ZONE 9 REHEAT WATER OUTLET NODE,BRANCH,ZONE 9 REHEAT BRANCH,Outlet,1
 Parent Node Connection,ZONE 10 REHEAT WATER INLET NODE,BRANCH,ZONE 10 REHEAT BRANCH,Inlet,1
 Parent Node Connection,ZONE 10 REHEAT WATER OUTLET NODE,BRANCH,ZONE 10 REHEAT BRANCH,Outlet,1
 Parent Node Connection,ZONE 11 REHEAT WATER INLET NODE,BRANCH,ZONE 11 REHEAT BRANCH,Inlet,1
 Parent Node Connection,ZONE 11 REHEAT WATER OUTLET NODE,BRANCH,ZONE 11 REHEAT BRANCH,Outlet,1
 Parent Node Connection,ZONE 12 REHEAT WATER INLET NODE,BRANCH,ZONE 12 REHEAT BRANCH,Inlet,1
 Parent Node Connection,ZONE 12 REHEAT WATER OUTLET NODE,BRANCH,ZONE 12 REHEAT BRANCH,Outlet,1
 Parent Node Connection,ZONE 13 REHEAT WATER INLET NODE,BRANCH,ZONE 13 REHEAT BRANCH,Inlet,1
 Parent Node Connection,ZONE 13 REHEAT WATER OUTLET NODE,BRANCH,ZONE 13 REHEAT BRANCH,Outlet,1
 Parent Node Connection,ZONE 14 REHEAT WATER INLET NODE,BRANCH,ZONE 14 REHEAT BRANCH,Inlet,1
 Parent Node Connection,ZONE 14 REHEAT WATER OUTLET NODE,BRANCH,ZONE 14 REHEAT BRANCH,Outlet,1
 Parent Node Connection,ZONE 15 REHEAT WATER INLET NODE,BRANCH,ZONE 15 REHEAT BRANCH,Inlet,1
 Parent Node Connection,ZONE 15 REHEAT WATER OUTLET NODE,BRANCH,ZONE 15 REHEAT BRANCH,Outlet,1
 Parent Node Connection,HEATING COIL WATER INLET NODE,BRANCH,MAIN HEAT COIL BRANCH,Inlet,1
 Parent Node Connection,HEATING COIL WATER OUTLET NODE,BRANCH,MAIN HEAT COIL BRANCH,Outlet,1
 Parent Node Connection,HEATSYS1 DEMAND BYPASS PIPE INLET NODE,BRANCH,HEATSYS1 DEMAND BYPASS BRANCH,Inlet,1
 Parent Node Connection,HEATSYS1 DEMAND BYPASS PIPE OUTLET NODE,BRANCH,HEATSYS1 DEMAND BYPASS BRANCH,Outlet,1
 Parent Node Connection,HEATSYS1 DEMAND MIXER-HEATSYS1 DEMAND OUTLET PIPE,BRANCH,HEATSYS1 DEMAND OUTLET BRANCH,Inlet,1
 Parent Node Connection,HEATSYS1 DEMAND OUTLET NODE,BRANCH,HEATSYS1 DEMAND OUTLET BRANCH,Outlet,1
 Parent Node Connection,COOLSYS1 SUPPLY INLET NODE,BRANCH,COOLSYS1 SUPPLY INLET BRANCH,Inlet,1
 Parent Node Connection,COOLSYS1 INLET NODEVIACONNECTOR,BRANCH,COOLSYS1 SUPPLY INLET BRANCH,Outlet,1
 Parent Node Connection,COOLSYS1 INLET NODE,BRANCH,COOLSYS1 SUPPLY EQUIPMENT BRANCH,Inlet,1
 Parent Node Connection,COOLSYS1 OUTLET NODE,BRANCH,COOLSYS1 SUPPLY EQUIPMENT BRANCH,Outlet,1
 Parent Node Connection,COOLSYS1 SUPPLY EQUIP BYPASS INLET NODE,BRANCH,COOLSYS1 SUPPLY EQUIPMENT BYPASS BRANCH,Inlet,1
 Parent Node Connection,COOLSYS1 SUPPLY EQUIP BYPASS OUTLET NODE,BRANCH,COOLSYS1 SUPPLY EQUIPMENT BYPASS BRANCH,Outlet,1
 Parent Node Connection,COOLSYS1 SUPPLY MIXER-COOLSYS1 SUPPLY OUTLET PIPE,BRANCH,COOLSYS1 SUPPLY OUTLET BRANCH,Inlet,1
 Parent Node Connection,COOLSYS1 SUPPLY OUTLET NODE,BRANCH,COOLSYS1 SUPPLY OUTLET BRANCH,Outlet,1
 Parent Node Connection,COOLSYS1 DEMAND INLET NODE,BRANCH,COOLSYS1 DEMAND INLET BRANCH,Inlet,1
 Parent Node Connection,COOLSYS1 DEMAND INLET PIPE-COOLSYS1 DEMAND MIXER,BRANCH,COOLSYS1 DEMAND INLET BRANCH,Outlet,1
 Parent Node Connection,COOLING COIL WATER INLET NODE,BRANCH,COOLSYS1 DEMAND LOAD BRANCH 1,Inlet,1
 Parent Node Connection,COOLING COIL WATER OUTLET NODE,BRANCH,COOLSYS1 DEMAND LOAD BRANCH 1,Outlet,1
 Parent Node Connection,COOLSYS1 DEMAND BYPASS PIPE INLET NODE,BRANCH,COOLSYS1 DEMAND BYPASS BRANCH,Inlet,1
 Parent Node Connection,COOLSYS1 DEMAND BYPASS PIPE OUTLET NODE,BRANCH,COOLSYS1 DEMAND BYPASS BRANCH,Outlet,1
 Parent Node Connection,COOLSYS1 DEMAND MIXER-COOLSYS1 DEMAND OUTLET PIPE,BRANCH,COOLSYS1 DEMAND OUTLET BRANCH,Inlet,1
 Parent Node Connection,COOLSYS1 DEMAND OUTLET NODE,BRANCH,COOLSYS1 DEMAND OUTLET BRANCH,Outlet,1
 Parent Node Connection,CONDENSER LOOP SUPPLY INLET NODE,BRANCH,TOWERWATERSYS SUPPLY INLET BRANCH,Inlet,1
 Parent Node Connection,CONDENSER TOWER INLET NODEVIACONNECTOR,BRANCH,TOWERWATERSYS SUPPLY INLET BRANCH,Outlet,1
 Parent Node Connection,CONDENSER TOWER INLET NODE,BRANCH,TOWERWATERSYS SUPPLY EQUIPMENT BRANCH,Inlet,1
 Parent Node Connection,CONDENSER TOWER OUTLET NODE,BRANCH,TOWERWATERSYS SUPPLY EQUIPMENT BRANCH,Outlet,1
 Parent Node Connection,TOWERWATERSYS SUPPLY EQUIP BYPASS INLET NODE,BRANCH,TOWERWATERSYS SUPPLY EQUIPMENT BYPASS BRANCH,Inlet,1
 Parent Node Connection,TOWERWATERSYS SUPPLY EQUIP BYPASS OUTLET NODE,BRANCH,TOWERWATERSYS SUPPLY EQUIPMENT BYPASS BRANCH,Outlet,1
 Parent Node Connection,TOWERWATERSYS SUPPLY MIXER-TOWERWATERSYS SUPPLY OUTLET PIPE,BRANCH,TOWERWATERSYS SUPPLY OUTLET BRANCH,Inlet,1
 Parent Node Connection,TOWERWATERSYS SUPPLY OUTLET NODE,BRANCH,TOWERWATERSYS SUPPLY OUTLET BRANCH,Outlet,1
 Parent Node Connection,TOWERWATERSYS DEMAND INLET NODE,BRANCH,TOWERWATERSYS DEMAND INLET BRANCH,Inlet,1
 Parent Node Connection,TOWERWATERSYS DEMAND INLET PIPE-TOWERWATERSYS DEMAND MIXER,BRANCH,TOWERWATERSYS DEMAND INLET BRANCH,Outlet,1
 Parent Node Connection,COOLSYS1 CONDENSER WATER INLET NODE,BRANCH,TOWERWATERSYS DEMAND LOAD BRANCH 1,Inlet,1
 Parent Node Connection,COOLSYS1 CONDENSER WATER OUTLET NODE,BRANCH,TOWERWATERSYS DEMAND LOAD BRANCH 1,Outlet,1
 Parent Node Connection,TOWERWATERSYS DEMAND BYPASS PIPE INLET NODE,BRANCH,TOWERWATERSYS DEMAND BYPASS BRANCH,Inlet,1
 Parent Node Connection,TOWERWATERSYS DEMAND BYPASS PIPE OUTLET NODE,BRANCH,TOWERWATERSYS DEMAND BYPASS BRANCH,Outlet,1
 Parent Node Connection,TOWERWATERSYS DEMAND MIXER-TOWERWATERSYS DEMAND OUTLET PIPE,BRANCH,TOWERWATERSYS DEMAND OUTLET BRANCH,Inlet,1
 Parent Node Connection,TOWERWATERSYS DEMAND OUTLET NODE,BRANCH,TOWERWATERSYS DEMAND OUTLET BRANCH,Outlet,1
 Parent Node Connection,VAV_5 ZONE EQUIPMENT INLET NODE,AIRLOOPHVAC:SUPPLYPATH,VAV_5,Inlet,1
 Parent Node Connection,VAV_5 ZONE EQUIPMENT OUTLET NODE,AIRLOOPHVAC:RETURNPATH,VAV_5 RETURN AIR PATH,Outlet,1
 Parent Node Connection,PER3NOR INLET NODE,ZONEHVAC:AIRDISTRIBUTIONUNIT,PER3NOR AHU,Outlet,1
 Parent Node Connection,PER3EAS INLET NODE,ZONEHVAC:AIRDISTRIBUTIONUNIT,PER3EAS AHU,Outlet,1
 Parent Node Connection,PER3SOU INLET NODE,ZONEHVAC:AIRDISTRIBUTIONUNIT,PER3SOU AHU,Outlet,1
 Parent Node Connection,PER3WES INLET NODE,ZONEHVAC:AIRDISTRIBUTIONUNIT,PER3WES AHU,Outlet,1
 Parent Node Connection,COR3 INLET NODE,ZONEHVAC:AIRDISTRIBUTIONUNIT,COR3 AHU,Outlet,1
 Parent Node Connection,PER1NOR INLET NODE,ZONEHVAC:AIRDISTRIBUTIONUNIT,PER1NOR AHU,Outlet,1
 Parent Node Connection,PER1EAS INLET NODE,ZONEHVAC:AIRDISTRIBUTIONUNIT,PER1EAS AHU,Outlet,1
 Parent Node Connection,PER1SOU INLET NODE,ZONEHVAC:AIRDISTRIBUTIONUNIT,PER1SOU AHU,Outlet,1
 Parent Node Connection,PER1WES INLET NODE,ZONEHVAC:AIRDISTRIBUTIONUNIT,PER1WES AHU,Outlet,1
 Parent Node Connection,COR1 INLET NODE,ZONEHVAC:AIRDISTRIBUTIONUNIT,COR1 AHU,Outlet,1
 Parent Node Connection,PER2NOR INLET NODE,ZONEHVAC:AIRDISTRIBUTIONUNIT,PER2NOR AHU,Outlet,1
 Parent Node Connection,PER2EAS INLET NODE,ZONEHVAC:AIRDISTRIBUTIONUNIT,PER2EAS AHU,Outlet,1
 Parent Node Connection,PER2SOU INLET NODE,ZONEHVAC:AIRDISTRIBUTIONUNIT,PER2SOU AHU,Outlet,1
 Parent Node Connection,PER2WES INLET NODE,ZONEHVAC:AIRDISTRIBUTIONUNIT,PER2WES AHU,Outlet,1
 Parent Node Connection,COR2 INLET NODE,ZONEHVAC:AIRDISTRIBUTIONUNIT,COR2 AHU,Outlet,1
 Parent Node Connection,PER3NOR INLET NODE,AIRTERMINAL:SINGLEDUCT:VAV:REHEAT,PER3NOR VAV SYSTEM,Outlet,1
 Parent Node Connection,PER3EAS INLET NODE,AIRTERMINAL:SINGLEDUCT:VAV:REHEAT,PER3EAS VAV SYSTEM,Outlet,1
 Parent Node Connection,PER3SOU INLET NODE,AIRTERMINAL:SINGLEDUCT:VAV:REHEAT,PER3SOU VAV SYSTEM,Outlet,1
 Parent Node Connection,PER3WES INLET NODE,AIRTERMINAL:SINGLEDUCT:VAV:REHEAT,PER3WES VAV SYSTEM,Outlet,1
 Parent Node Connection,COR3 INLET NODE,AIRTERMINAL:SINGLEDUCT:VAV:REHEAT,COR3 VAV SYSTEM,Outlet,1
 Parent Node Connection,PER1NOR INLET NODE,AIRTERMINAL:SINGLEDUCT:VAV:REHEAT,PER1NOR VAV SYSTEM,Outlet,1
 Parent Node Connection,PER1EAS INLET NODE,AIRTERMINAL:SINGLEDUCT:VAV:REHEAT,PER1EAS VAV SYSTEM,Outlet,1
 Parent Node Connection,PER1SOU INLET NODE,AIRTERMINAL:SINGLEDUCT:VAV:REHEAT,PER1SOU VAV SYSTEM,Outlet,1
 Parent Node Connection,PER1WES INLET NODE,AIRTERMINAL:SINGLEDUCT:VAV:REHEAT,PER1WES VAV SYSTEM,Outlet,1
 Parent Node Connection,COR1 INLET NODE,AIRTERMINAL:SINGLEDUCT:VAV:REHEAT,COR1 VAV SYSTEM,Outlet,1
 Parent Node Connection,PER2NOR INLET NODE,AIRTERMINAL:SINGLEDUCT:VAV:REHEAT,PER2NOR VAV SYSTEM,Outlet,1
 Parent Node Connection,PER2EAS INLET NODE,AIRTERMINAL:SINGLEDUCT:VAV:REHEAT,PER2EAS VAV SYSTEM,Outlet,1
 Parent Node Connection,PER2SOU INLET NODE,AIRTERMINAL:SINGLEDUCT:VAV:REHEAT,PER2SOU VAV SYSTEM,Outlet,1
 Parent Node Connection,PER2WES INLET NODE,AIRTERMINAL:SINGLEDUCT:VAV:REHEAT,PER2WES VAV SYSTEM,Outlet,1
 Parent Node Connection,COR2 INLET NODE,AIRTERMINAL:SINGLEDUCT:VAV:REHEAT,COR2 VAV SYSTEM,Outlet,1
 Parent Node Connection,VAV_5 SUPPLY EQUIPMENT INLET NODE,AIRLOOPHVAC,VAV_5,Inlet,1
 Parent Node Connection,VAV_5 ZONE EQUIPMENT OUTLET NODE,AIRLOOPHVAC,VAV_5,Outlet,1
 Parent Node Connection,VAV_5 ZONE EQUIPMENT INLET NODE,AIRLOOPHVAC,VAV_5,Inlet,1
 Parent Node Connection,AIR LOOP OUTLET NODE 1,AIRLOOPHVAC,VAV_5,Outlet,1
 Parent Node Connection,HEATSYS1 SUPPLY OUTLET NODE,PLANTLOOP,HEATSYS1,Sensor,1
[...]
 Non-Parent Node Connection,ZONE 6 REHEAT AIR INLET NODE,AIRTERMINAL:SINGLEDUCT:VAV:REHEAT,PER1NOR VAV SYSTEM,Outlet,1
 Non-Parent Node Connection,ZONE 6 DAMPER INLET NODE,AIRTERMINAL:SINGLEDUCT:VAV:REHEAT,PER1NOR VAV SYSTEM,Inlet,1
 Non-Parent Node Connection,ZONE 7 REHEAT AIR INLET NODE,AIRTERMINAL:SINGLEDUCT:VAV:REHEAT,PER1EAS VAV SYSTEM,Outlet,1
 Non-Parent Node Connection,ZONE 7 DAMPER INLET NODE,AIRTERMINAL:SINGLEDUCT:VAV:REHEAT,PER1EAS VAV SYSTEM,Inlet,1
 Non-Parent Node Connection,ZONE 8 REHEAT AIR INLET NODE,AIRTERMINAL:SINGLEDUCT:VAV:REHEAT,PER1SOU VAV SYSTEM,Outlet,1
 Non-Parent Node Connection,ZONE 8 DAMPER INLET NODE,AIRTERMINAL:SINGLEDUCT:VAV:REHEAT,PER1SOU VAV SYSTEM,Inlet,1
 Non-Parent Node Connection,ZONE 9 REHEAT AIR INLET NODE,AIRTERMINAL:SINGLEDUCT:VAV:REHEAT,PER1WES VAV SYSTEM,Outlet,1
 Non-Parent Node Connection,ZONE 9 DAMPER INLET NODE,AIRTERMINAL:SINGLEDUCT:VAV:REHEAT,PER1WES VAV SYSTEM,Inlet,1
 Non-Parent Node Connection,ZONE 10 REHEAT AIR INLET NODE,AIRTERMINAL:SINGLEDUCT:VAV:REHEAT,COR1 VAV SYSTEM,Outlet,1
 Non-Parent Node Connection,ZONE 10 DAMPER INLET NODE,AIRTERMINAL:SINGLEDUCT:VAV:REHEAT,COR1 VAV SYSTEM,Inlet,1
 Non-Parent Node Connection,ZONE 11 REHEAT AIR INLET NODE,AIRTERMINAL:SINGLEDUCT:VAV:REHEAT,PER2NOR VAV SYSTEM,Outlet,1
 Non-Parent Node Connection,ZONE 11 DAMPER INLET NODE,AIRTERMINAL:SINGLEDUCT:VAV:REHEAT,PER2NOR VAV SYSTEM,Inlet,1
 Non-Parent Node Connection,ZONE 12 REHEAT AIR INLET NODE,AIRTERMINAL:SINGLEDUCT:VAV:REHEAT,PER2EAS VAV SYSTEM,Outlet,1
 Non-Parent Node Connection,ZONE 12 DAMPER INLET NODE,AIRTERMINAL:SINGLEDUCT:VAV:REHEAT,PER2EAS VAV SYSTEM,Inlet,1
 Non-Parent Node Connection,ZONE 13 REHEAT AIR INLET NODE,AIRTERMINAL:SINGLEDUCT:VAV:REHEAT,PER2SOU VAV SYSTEM,Outlet,1
 Non-Parent Node Connection,ZONE 13 DAMPER INLET NODE,AIRTERMINAL:SINGLEDUCT:VAV:REHEAT,PER2SOU VAV SYSTEM,Inlet,1
 Non-Parent Node Connection,ZONE 14 REHEAT AIR INLET NODE,AIRTERMINAL:SINGLEDUCT:VAV:REHEAT,PER2WES VAV SYSTEM,Outlet,1
 Non-Parent Node Connection,ZONE 14 DAMPER INLET NODE,AIRTERMINAL:SINGLEDUCT:VAV:REHEAT,PER2WES VAV SYSTEM,Inlet,1
 Non-Parent Node Connection,ZONE 15 REHEAT AIR INLET NODE,AIRTERMINAL:SINGLEDUCT:VAV:REHEAT,COR2 VAV SYSTEM,Outlet,1
 Non-Parent Node Connection,ZONE 15 DAMPER INLET NODE,AIRTERMINAL:SINGLEDUCT:VAV:REHEAT,COR2 VAV SYSTEM,Inlet,1
 Non-Parent Node Connection,VAV_5 ZONE EQUIPMENT OUTLET NODE,AIRLOOPHVAC:ZONEMIXER,VAV_5 RETURN AIR MIXER,Outlet,1
 Non-Parent Node Connection,PER1NOR OUTLET NODE,AIRLOOPHVAC:ZONEMIXER,VAV_5 RETURN AIR MIXER,Inlet,1
 Non-Parent Node Connection,PER1EAS OUTLET NODE,AIRLOOPHVAC:ZONEMIXER,VAV_5 RETURN AIR MIXER,Inlet,1
 Non-Parent Node Connection,PER1SOU OUTLET NODE,AIRLOOPHVAC:ZONEMIXER,VAV_5 RETURN AIR MIXER,Inlet,1
 Non-Parent Node Connection,PER1WES OUTLET NODE,AIRLOOPHVAC:ZONEMIXER,VAV_5 RETURN AIR MIXER,Inlet,1
 Non-Parent Node Connection,COR1 OUTLET NODE,AIRLOOPHVAC:ZONEMIXER,VAV_5 RETURN AIR MIXER,Inlet,1
 Non-Parent Node Connection,PER2NOR OUTLET NODE,AIRLOOPHVAC:ZONEMIXER,VAV_5 RETURN AIR MIXER,Inlet,1
 Non-Parent Node Connection,PER2EAS OUTLET NODE,AIRLOOPHVAC:ZONEMIXER,VAV_5 RETURN AIR MIXER,Inlet,1
 Non-Parent Node Connection,PER2SOU OUTLET NODE,AIRLOOPHVAC:ZONEMIXER,VAV_5 RETURN AIR MIXER,Inlet,1
 Non-Parent Node Connection,PER2WES OUTLET NODE,AIRLOOPHVAC:ZONEMIXER,VAV_5 RETURN AIR MIXER,Inlet,1
 Non-Parent Node Connection,COR2 OUTLET NODE,AIRLOOPHVAC:ZONEMIXER,VAV_5 RETURN AIR MIXER,Inlet,1
 Non-Parent Node Connection,PER3NOR OUTLET NODE,AIRLOOPHVAC:ZONEMIXER,VAV_5 RETURN AIR MIXER,Inlet,1
 Non-Parent Node Connection,PER3EAS OUTLET NODE,AIRLOOPHVAC:ZONEMIXER,VAV_5 RETURN AIR MIXER,Inlet,1
 Non-Parent Node Connection,PER3SOU OUTLET NODE,AIRLOOPHVAC:ZONEMIXER,VAV_5 RETURN AIR MIXER,Inlet,1
 Non-Parent Node Connection,PER3WES OUTLET NODE,AIRLOOPHVAC:ZONEMIXER,VAV_5 RETURN AIR MIXER,Inlet,1
 Non-Parent Node Connection,COR3 OUTLET NODE,AIRLOOPHVAC:ZONEMIXER,VAV_5 RETURN AIR MIXER,Inlet,1
 Non-Parent Node Connection,MIXED AIR NODE 1,OUTDOORAIR:MIXER,VAV_5_OAMIXING BOX,Outlet,1
 Non-Parent Node Connection,VAV_5_OAINLET NODE,OUTDOORAIR:MIXER,VAV_5_OAMIXING BOX,Inlet,1
 Non-Parent Node Connection,VAV_5_OARELIEF NODE,OUTDOORAIR:MIXER,VAV_5_OAMIXING BOX,ReliefAir,1
 Non-Parent Node Connection,VAV_5 SUPPLY EQUIPMENT INLET NODE,OUTDOORAIR:MIXER,VAV_5_OAMIXING BOX,Inlet,1
 Non-Parent Node Connection,AIR LOOP OUTLET NODE 1,SETPOINTMANAGER:SCHEDULED,VAV_5 SAT SETPOINT,Setpoint,1
 Non-Parent Node Connection,HEATSYS1 SUPPLY OUTLET NODE,SETPOINTMANAGER:SCHEDULED,HEATSYS1 LOOP SETPOINT MANAGER,Setpoint,1
 Non-Parent Node Connection,COOLSYS1 SUPPLY OUTLET NODE,SETPOINTMANAGER:SCHEDULED,COOLSYS1 LOOP SETPOINT MANAGER,Setpoint,1
 Non-Parent Node Connection,AIR LOOP OUTLET NODE 1,SETPOINTMANAGER:MIXEDAIR,VAV_5_COOLC SAT MANAGER,Sensor,1
 Non-Parent Node Connection,HEATING COIL AIR OUTLET NODE,SETPOINTMANAGER:MIXEDAIR,VAV_5_COOLC SAT MANAGER,Sensor,1
 Non-Parent Node Connection,COOLING COIL AIR OUTLET NODE,SETPOINTMANAGER:MIXEDAIR,VAV_5_COOLC SAT MANAGER,Setpoint,1
 Non-Parent Node Connection,AIR LOOP OUTLET NODE 1,SETPOINTMANAGER:MIXEDAIR,VAV_5_HEATC SAT MANAGER,Sensor,1
 Non-Parent Node Connection,HEATING COIL AIR OUTLET NODE,SETPOINTMANAGER:MIXEDAIR,VAV_5_HEATC SAT MANAGER,Sensor,1
 Non-Parent Node Connection,HEATING COIL AIR OUTLET NODE,SETPOINTMANAGER:MIXEDAIR,VAV_5_HEATC SAT MANAGER,Setpoint,1
 Non-Parent Node Connection,AIR LOOP OUTLET NODE 1,SETPOINTMANAGER:MIXEDAIR,VAV_5_OAMIXED AIR TEMP MANAGER,Sensor,1
 Non-Parent Node Connection,HEATING COIL AIR OUTLET NODE,SETPOINTMANAGER:MIXEDAIR,VAV_5_OAMIXED AIR TEMP MANAGER,Sensor,1
 Non-Parent Node Connection,MIXED AIR NODE 1,SETPOINTMANAGER:MIXEDAIR,VAV_5_OAMIXED AIR TEMP MANAGER,Setpoint,1
 Non-Parent Node Connection,COOLING COIL AIR OUTLET NODE,CONTROLLER:WATERCOIL,VAV_5_COOLC_CONTROLLER,Sensor,1
 Non-Parent Node Connection,COOLING COIL WATER INLET NODE,CONTROLLER:WATERCOIL,VAV_5_COOLC_CONTROLLER,Actuator,1
 Non-Parent Node Connection,HEATING COIL AIR OUTLET NODE,CONTROLLER:WATERCOIL,VAV_5_HEATC_CONTROLLER,Sensor,1
 Non-Parent Node Connection,HEATING COIL WATER INLET NODE,CONTROLLER:WATERCOIL,VAV_5_HEATC_CONTROLLER,Actuator,1
 Non-Parent Node Connection,HEATING COIL AIR OUTLET NODE,FAN:VARIABLEVOLUME,VAV_SUPPLY_FAN,Inlet,1
 Non-Parent Node Connection,AIR LOOP OUTLET NODE 1,FAN:VARIABLEVOLUME,VAV_SUPPLY_FAN,Outlet,1
 Non-Parent Node Connection,VAV_5 SUPPLY EQUIPMENT INLET NODE,FAN:VARIABLEVOLUME,VAV_RETURN_FAN,Inlet,1
 Non-Parent Node Connection,VAV_5 OA_SYS_INLET NODE,FAN:VARIABLEVOLUME,VAV_RETURN_FAN,Outlet,1
 Non-Parent Node Connection,MIXED AIR NODE 1,CONTROLLER:OUTDOORAIR,VAV_5_OA_CONTROLLER,Sensor,1
 Non-Parent Node Connection,VAV_5_OAINLET NODE,CONTROLLER:OUTDOORAIR,VAV_5_OA_CONTROLLER,Actuator,1
 Non-Parent Node Connection,VAV_5_OARELIEF NODE,CONTROLLER:OUTDOORAIR,VAV_5_OA_CONTROLLER,Actuator,1
 Non-Parent Node Connection,VAV_5 SUPPLY EQUIPMENT INLET NODE,CONTROLLER:OUTDOORAIR,VAV_5_OA_CONTROLLER,Sensor,1
 Non-Parent Node Connection,HEATSYS1 DEMAND INLET PIPE-HEATSYS1 DEMAND MIXER,CONNECTOR:SPLITTER,HEATSYS1 DEMAND SPLITTER,Inlet,1
 Non-Parent Node Connection,ZONE 1 REHEAT WATER INLET NODE,CONNECTOR:SPLITTER,HEATSYS1 DEMAND SPLITTER,Outlet,1
 Non-Parent Node Connection,ZONE 2 REHEAT WATER INLET NODE,CONNECTOR:SPLITTER,HEATSYS1 DEMAND SPLITTER,Outlet,1
 Non-Parent Node Connection,ZONE 3 REHEAT WATER INLET NODE,CONNECTOR:SPLITTER,HEATSYS1 DEMAND SPLITTER,Outlet,1
 Non-Parent Node Connection,ZONE 4 REHEAT WATER INLET NODE,CONNECTOR:SPLITTER,HEATSYS1 DEMAND SPLITTER,Outlet,1
 Non-Parent Node Connection,ZONE 5 REHEAT WATER INLET NODE,CONNECTOR:SPLITTER,HEATSYS1 DEMAND SPLITTER,Outlet,1
 Non-Parent Node Connection,ZONE 6 REHEAT WATER INLET NODE,CONNECTOR:SPLITTER,HEATSYS1 DEMAND SPLITTER,Outlet,1
 Non-Parent Node Connection,ZONE 7 REHEAT WATER INLET NODE,CONNECTOR:SPLITTER,HEATSYS1 DEMAND SPLITTER,Outlet,1
 Non-Parent Node Connection,ZONE 8 REHEAT WATER INLET NODE,CONNECTOR:SPLITTER,HEATSYS1 DEMAND SPLITTER,Outlet,1
 Non-Parent Node Connection,ZONE 9 REHEAT WATER INLET NODE,CONNECTOR:SPLITTER,HEATSYS1 DEMAND SPLITTER,Outlet,1
 Non-Parent Node Connection,ZONE 10 REHEAT WATER INLET NODE,CONNECTOR:SPLITTER,HEATSYS1 DEMAND SPLITTER,Outlet,1
 Non-Parent Node Connection,ZONE 11 REHEAT WATER INLET NODE,CONNECTOR:SPLITTER,HEATSYS1 DEMAND SPLITTER,Outlet,1
 Non-Parent Node Connection,ZONE 12 REHEAT WATER INLET NODE,CONNECTOR:SPLITTER,HEATSYS1 DEMAND SPLITTER,Outlet,1
 Non-Parent Node Connection,ZONE 13 REHEAT WATER INLET NODE,CONNECTOR:SPLITTER,HEATSYS1 DEMAND SPLITTER,Outlet,1
 Non-Parent Node Connection,ZONE 14 REHEAT WATER INLET NODE,CONNECTOR:SPLITTER,HEATSYS1 DEMAND SPLITTER,Outlet,1
 Non-Parent Node Connection,ZONE 15 REHEAT WATER INLET NODE,CONNECTOR:SPLITTER,HEATSYS1 DEMAND SPLITTER,Outlet,1
 Non-Parent Node Connection,HEATING COIL WATER INLET NODE,CONNECTOR:SPLITTER,HEATSYS1 DEMAND SPLITTER,Outlet,1
 Non-Parent Node Connection,HEATSYS1 DEMAND BYPASS PIPE INLET NODE,CONNECTOR:SPLITTER,HEATSYS1 DEMAND SPLITTER,Outlet,1
 Non-Parent Node Connection,HEATSYS1 DEMAND MIXER-HEATSYS1 DEMAND OUTLET PIPE,CONNECTOR:MIXER,HEATSYS1 DEMAND MIXER,Outlet,1
 Non-Parent Node Connection,ZONE 1 REHEAT WATER OUTLET NODE,CONNECTOR:MIXER,HEATSYS1 DEMAND MIXER,Inlet,1
 Non-Parent Node Connection,ZONE 2 REHEAT WATER OUTLET NODE,CONNECTOR:MIXER,HEATSYS1 DEMAND MIXER,Inlet,1
 Non-Parent Node Connection,ZONE 3 REHEAT WATER OUTLET NODE,CONNECTOR:MIXER,HEATSYS1 DEMAND MIXER,Inlet,1
 Non-Parent Node Connection,ZONE 4 REHEAT WATER OUTLET NODE,CONNECTOR:MIXER,HEATSYS1 DEMAND MIXER,Inlet,1
 Non-Parent Node Connection,ZONE 5 REHEAT WATER OUTLET NODE,CONNECTOR:MIXER,HEATSYS1 DEMAND MIXER,Inlet,1
 Non-Parent Node Connection,ZONE 6 REHEAT WATER OUTLET NODE,CONNECTOR:MIXER,HEATSYS1 DEMAND MIXER,Inlet,1
 Non-Parent Node Connection,ZONE 7 REHEAT WATER OUTLET NODE,CONNECTOR:MIXER,HEATSYS1 DEMAND MIXER,Inlet,1
 Non-Parent Node Connection,ZONE 8 REHEAT WATER OUTLET NODE,CONNECTOR:MIXER,HEATSYS1 DEMAND MIXER,Inlet,1
 Non-Parent Node Connection,ZONE 9 REHEAT WATER OUTLET NODE,CONNECTOR:MIXER,HEATSYS1 DEMAND MIXER,Inlet,1
 Non-Parent Node Connection,ZONE 10 REHEAT WATER OUTLET NODE,CONNECTOR:MIXER,HEATSYS1 DEMAND MIXER,Inlet,1
 Non-Parent Node Connection,ZONE 11 REHEAT WATER OUTLET NODE,CONNECTOR:MIXER,HEATSYS1 DEMAND MIXER,Inlet,1
 Non-Parent Node Connection,ZONE 12 REHEAT WATER OUTLET NODE,CONNECTOR:MIXER,HEATSYS1 DEMAND MIXER,Inlet,1
 Non-Parent Node Connection,ZONE 13 REHEAT WATER OUTLET NODE,CONNECTOR:MIXER,HEATSYS1 DEMAND MIXER,Inlet,1
 Non-Parent Node Connection,ZONE 14 REHEAT WATER OUTLET NODE,CONNECTOR:MIXER,HEATSYS1 DEMAND MIXER,Inlet,1
 Non-Parent Node Connection,ZONE 15 REHEAT WATER OUTLET NODE,CONNECTOR:MIXER,HEATSYS1 DEMAND MIXER,Inlet,1
 Non-Parent Node Connection,HEATING COIL WATER OUTLET NODE,CONNECTOR:MIXER,HEATSYS1 DEMAND MIXER,Inlet,1
 Non-Parent Node Connection,HEATSYS1 DEMAND BYPASS PIPE OUTLET NODE,CONNECTOR:MIXER,HEATSYS1 DEMAND MIXER,Inlet,1
 Non-Parent Node Connection,HEATSYS1 SUPPLY EQUIP BYPASS INLET NODE,PIPE:ADIABATIC,HEATSYS1 SUPPLY EQUIPMENT BYPASS PIPE,Inlet,1
 Non-Parent Node Connection,HEATSYS1 SUPPLY EQUIP BYPASS OUTLET NODE,PIPE:ADIABATIC,HEATSYS1 SUPPLY EQUIPMENT BYPASS PIPE,Outlet,1
 Non-Parent Node Connection,HEATSYS1 SUPPLY MIXER-HEATSYS1 SUPPLY OUTLET PIPE,PIPE:ADIABATIC,HEATSYS1 SUPPLY OUTLET PIPE,Inlet,1
 Non-Parent Node Connection,HEATSYS1 SUPPLY OUTLET NODE,PIPE:ADIABATIC,HEATSYS1 SUPPLY OUTLET PIPE,Outlet,1
 Non-Parent Node Connection,HEATSYS1 DEMAND INLET NODE,PIPE:ADIABATIC,HEATSYS1 DEMAND INLET PIPE,Inlet,1
 Non-Parent Node Connection,HEATSYS1 DEMAND INLET PIPE-HEATSYS1 DEMAND MIXER,PIPE:ADIABATIC,HEATSYS1 DEMAND INLET PIPE,Outlet,1
 Non-Parent Node Connection,HEATSYS1 DEMAND BYPASS PIPE INLET NODE,PIPE:ADIABATIC,HEATSYS1 DEMAND BYPASS PIPE,Inlet,1
 Non-Parent Node Connection,HEATSYS1 DEMAND BYPASS PIPE OUTLET NODE,PIPE:ADIABATIC,HEATSYS1 DEMAND BYPASS PIPE,Outlet,1
 Non-Parent Node Connection,HEATSYS1 DEMAND MIXER-HEATSYS1 DEMAND OUTLET PIPE,PIPE:ADIABATIC,HEATSYS1 DEMAND OUTLET PIPE,Inlet,1
 Non-Parent Node Connection,HEATSYS1 DEMAND OUTLET NODE,PIPE:ADIABATIC,HEATSYS1 DEMAND OUTLET PIPE,Outlet,1
 Non-Parent Node Connection,COOLSYS1 SUPPLY EQUIP BYPASS INLET NODE,PIPE:ADIABATIC,COOLSYS1 SUPPLY EQUIPMENT BYPASS PIPE,Inlet,1
 Non-Parent Node Connection,COOLSYS1 SUPPLY EQUIP BYPASS OUTLET NODE,PIPE:ADIABATIC,COOLSYS1 SUPPLY EQUIPMENT BYPASS PIPE,Outlet,1
 Non-Parent Node Connection,COOLSYS1 SUPPLY MIXER-COOLSYS1 SUPPLY OUTLET PIPE,PIPE:ADIABATIC,COOLSYS1 SUPPLY OUTLET PIPE,Inlet,1
 Non-Parent Node Connection,COOLSYS1 SUPPLY OUTLET NODE,PIPE:ADIABATIC,COOLSYS1 SUPPLY OUTLET PIPE,Outlet,1
 Non-Parent Node Connection,COOLSYS1 DEMAND INLET NODE,PIPE:ADIABATIC,COOLSYS1 DEMAND INLET PIPE,Inlet,1
 Non-Parent Node Connection,COOLSYS1 DEMAND INLET PIPE-COOLSYS1 DEMAND MIXER,PIPE:ADIABATIC,COOLSYS1 DEMAND INLET PIPE,Outlet,1
 Non-Parent Node Connection,COOLSYS1 DEMAND BYPASS PIPE INLET NODE,PIPE:ADIABATIC,COOLSYS1 DEMAND BYPASS PIPE,Inlet,1
 Non-Parent Node Connection,COOLSYS1 DEMAND BYPASS PIPE OUTLET NODE,PIPE:ADIABATIC,COOLSYS1 DEMAND BYPASS PIPE,Outlet,1
 Non-Parent Node Connection,COOLSYS1 DEMAND MIXER-COOLSYS1 DEMAND OUTLET PIPE,PIPE:ADIABATIC,COOLSYS1 DEMAND OUTLET PIPE,Inlet,1
 Non-Parent Node Connection,COOLSYS1 DEMAND OUTLET NODE,PIPE:ADIABATIC,COOLSYS1 DEMAND OUTLET PIPE,Outlet,1
 Non-Parent Node Connection,TOWERWATERSYS SUPPLY EQUIP BYPASS INLET NODE,PIPE:ADIABATIC,TOWERWATERSYS SUPPLY EQUIPMENT BYPASS PIPE,Inlet,1
 Non-Parent Node Connection,TOWERWATERSYS SUPPLY EQUIP BYPASS OUTLET NODE,PIPE:ADIABATIC,TOWERWATERSYS SUPPLY EQUIPMENT BYPASS PIPE,Outlet,1
 Non-Parent Node Connection,TOWERWATERSYS SUPPLY MIXER-TOWERWATERSYS SUPPLY OUTLET PIPE,PIPE:ADIABATIC,TOWERWATERSYS SUPPLY OUTLET PIPE,Inlet,1
 Non-Parent Node Connection,TOWERWATERSYS SUPPLY OUTLET NODE,PIPE:ADIABATIC,TOWERWATERSYS SUPPLY OUTLET PIPE,Outlet,1
 Non-Parent Node Connection,TOWERWATERSYS DEMAND INLET NODE,PIPE:ADIABATIC,TOWERWATERSYS DEMAND INLET PIPE,Inlet,1
 Non-Parent Node Connection,TOWERWATERSYS DEMAND INLET PIPE-TOWERWATERSYS DEMAND MIXER,PIPE:ADIABATIC,TOWERWATERSYS DEMAND INLET PIPE,Outlet,1
 Non-Parent Node Connection,TOWERWATERSYS DEMAND BYPASS PIPE INLET NODE,PIPE:ADIABATIC,TOWERWATERSYS DEMAND BYPASS PIPE,Inlet,1
 Non-Parent Node Connection,TOWERWATERSYS DEMAND BYPASS PIPE OUTLET NODE,PIPE:ADIABATIC,TOWERWATERSYS DEMAND BYPASS PIPE,Outlet,1
 Non-Parent Node Connection,TOWERWATERSYS DEMAND MIXER-TOWERWATERSYS DEMAND OUTLET PIPE,PIPE:ADIABATIC,TOWERWATERSYS DEMAND OUTLET PIPE,Inlet,1
 Non-Parent Node Connection,TOWERWATERSYS DEMAND OUTLET NODE,PIPE:ADIABATIC,TOWERWATERSYS DEMAND OUTLET PIPE,Outlet,1
 Non-Parent Node Connection,BOILER INLET NODEVIACONNECTOR,CONNECTOR:SPLITTER,HEATSYS1 SUPPLY SPLITTER,Inlet,1
 Non-Parent Node Connection,BOILER INLET NODE,CONNECTOR:SPLITTER,HEATSYS1 SUPPLY SPLITTER,Outlet,1
 Non-Parent Node Connection,HEATSYS1 SUPPLY EQUIP BYPASS INLET NODE,CONNECTOR:SPLITTER,HEATSYS1 SUPPLY SPLITTER,Outlet,1
 Non-Parent Node Connection,HEATSYS1 SUPPLY MIXER-HEATSYS1 SUPPLY OUTLET PIPE,CONNECTOR:MIXER,HEATSYS1 SUPPLY MIXER,Outlet,1
 Non-Parent Node Connection,BOILER OUTLET NODE,CONNECTOR:MIXER,HEATSYS1 SUPPLY MIXER,Inlet,1
 Non-Parent Node Connection,HEATSYS1 SUPPLY EQUIP BYPASS OUTLET NODE,CONNECTOR:MIXER,HEATSYS1 SUPPLY MIXER,Inlet,1
 Non-Parent Node Connection,COOLSYS1 DEMAND INLET PIPE-COOLSYS1 DEMAND MIXER,CONNECTOR:SPLITTER,COOLSYS1 DEMAND SPLITTER,Inlet,1
 Non-Parent Node Connection,COOLING COIL WATER INLET NODE,CONNECTOR:SPLITTER,COOLSYS1 DEMAND SPLITTER,Outlet,1
 Non-Parent Node Connection,COOLSYS1 DEMAND BYPASS PIPE INLET NODE,CONNECTOR:SPLITTER,COOLSYS1 DEMAND SPLITTER,Outlet,1
 Non-Parent Node Connection,COOLSYS1 DEMAND MIXER-COOLSYS1 DEMAND OUTLET PIPE,CONNECTOR:MIXER,COOLSYS1 DEMAND MIXER,Outlet,1
 Non-Parent Node Connection,COOLING COIL WATER OUTLET NODE,CONNECTOR:MIXER,COOLSYS1 DEMAND MIXER,Inlet,1
 Non-Parent Node Connection,COOLSYS1 DEMAND BYPASS PIPE OUTLET NODE,CONNECTOR:MIXER,COOLSYS1 DEMAND MIXER,Inlet,1
 Non-Parent Node Connection,COOLSYS1 INLET NODEVIACONNECTOR,CONNECTOR:SPLITTER,COOLSYS1 SUPPLY SPLITTER,Inlet,1
 Non-Parent Node Connection,COOLSYS1 INLET NODE,CONNECTOR:SPLITTER,COOLSYS1 SUPPLY SPLITTER,Outlet,1
 Non-Parent Node Connection,COOLSYS1 SUPPLY EQUIP BYPASS INLET NODE,CONNECTOR:SPLITTER,COOLSYS1 SUPPLY SPLITTER,Outlet,1
 Non-Parent Node Connection,COOLSYS1 SUPPLY MIXER-COOLSYS1 SUPPLY OUTLET PIPE,CONNECTOR:MIXER,COOLSYS1 SUPPLY MIXER,Outlet,1
 Non-Parent Node Connection,COOLSYS1 OUTLET NODE,CONNECTOR:MIXER,COOLSYS1 SUPPLY MIXER,Inlet,1
 Non-Parent Node Connection,COOLSYS1 SUPPLY EQUIP BYPASS OUTLET NODE,CONNECTOR:MIXER,COOLSYS1 SUPPLY MIXER,Inlet,1
 Non-Parent Node Connection,BOILER INLET NODE,BOILER:HOTWATER,HEATSYS1 BOILER,Inlet,1
 Non-Parent Node Connection,BOILER OUTLET NODE,BOILER:HOTWATER,HEATSYS1 BOILER,Outlet,1
 Non-Parent Node Connection,HEATSYS1 SUPPLY INLET NODE,PUMP:VARIABLESPEED,HEATSYS1 PUMP,Inlet,1
 Non-Parent Node Connection,BOILER INLET NODEVIACONNECTOR,PUMP:VARIABLESPEED,HEATSYS1 PUMP,Outlet,1
 Non-Parent Node Connection,COOLSYS1 SUPPLY INLET NODE,PUMP:VARIABLESPEED,COOLSYS1 PUMP,Inlet,1
 Non-Parent Node Connection,COOLSYS1 INLET NODEVIACONNECTOR,PUMP:VARIABLESPEED,COOLSYS1 PUMP,Outlet,1
 Non-Parent Node Connection,CONDENSER LOOP SUPPLY INLET NODE,PUMP:CONSTANTSPEED,TOWERWATERSYS PUMP,Inlet,1
 Non-Parent Node Connection,CONDENSER TOWER INLET NODEVIACONNECTOR,PUMP:CONSTANTSPEED,TOWERWATERSYS PUMP,Outlet,1
 Non-Parent Node Connection,TOWERWATERSYS DEMAND INLET PIPE-TOWERWATERSYS DEMAND MIXER,CONNECTOR:SPLITTER,TOWERWATERSYS DEMAND SPLITTER,Inlet,1
 Non-Parent Node Connection,COOLSYS1 CONDENSER WATER INLET NODE,CONNECTOR:SPLITTER,TOWERWATERSYS DEMAND SPLITTER,Outlet,1
 Non-Parent Node Connection,TOWERWATERSYS DEMAND BYPASS PIPE INLET NODE,CONNECTOR:SPLITTER,TOWERWATERSYS DEMAND SPLITTER,Outlet,1
 Non-Parent Node Connection,TOWERWATERSYS DEMAND MIXER-TOWERWATERSYS DEMAND OUTLET PIPE,CONNECTOR:MIXER,TOWERWATERSYS DEMAND MIXER,Outlet,1
 Non-Parent Node Connection,COOLSYS1 CONDENSER WATER OUTLET NODE,CONNECTOR:MIXER,TOWERWATERSYS DEMAND MIXER,Inlet,1
 Non-Parent Node Connection,TOWERWATERSYS DEMAND BYPASS PIPE OUTLET NODE,CONNECTOR:MIXER,TOWERWATERSYS DEMAND MIXER,Inlet,1
 Non-Parent Node Connection,CONDENSER TOWER INLET NODEVIACONNECTOR,CONNECTOR:SPLITTER,TOWERWATERSYS SUPPLY SPLITTER,Inlet,1
 Non-Parent Node Connection,CONDENSER TOWER INLET NODE,CONNECTOR:SPLITTER,TOWERWATERSYS SUPPLY SPLITTER,Outlet,1
 Non-Parent Node Connection,TOWERWATERSYS SUPPLY EQUIP BYPASS INLET NODE,CONNECTOR:SPLITTER,TOWERWATERSYS SUPPLY SPLITTER,Outlet,1
 Non-Parent Node Connection,TOWERWATERSYS SUPPLY MIXER-TOWERWATERSYS SUPPLY OUTLET PIPE,CONNECTOR:MIXER,TOWERWATERSYS SUPPLY MIXER,Outlet,1
 Non-Parent Node Connection,CONDENSER TOWER OUTLET NODE,CONNECTOR:MIXER,TOWERWATERSYS SUPPLY MIXER,Inlet,1
 Non-Parent Node Connection,TOWERWATERSYS SUPPLY EQUIP BYPASS OUTLET NODE,CONNECTOR:MIXER,TOWERWATERSYS SUPPLY MIXER,Inlet,1
 Non-Parent Node Connection,CONDENSER TOWER INLET NODE,COOLINGTOWER:SINGLESPEED,TOWERWATERSYS COOLTOWER,Inlet,1
 Non-Parent Node Connection,CONDENSER TOWER OUTLET NODE,COOLINGTOWER:SINGLESPEED,TOWERWATERSYS COOLTOWER,Outlet,1
 Non-Parent Node Connection,TOWERWATERSYS COOLTOWER OA REF NODE,COOLINGTOWER:SINGLESPEED,TOWERWATERSYS COOLTOWER,OutsideAirReference,1
! ===============================================================
! <#NonConnected Nodes>,<Number of NonConnected Nodes>
 #NonConnected Nodes,4
! <NonConnected Node>,<NonConnected Node Number>,<NonConnected Node Name>
 NonConnected Node,18,OUTSIDE AIR INLET NODE 1
 NonConnected Node,20,CW SUPPLY OUTLET NODE
 NonConnected Node,21,HW SUPPLY OUTLET NODE
 NonConnected Node,22,CONDENSER SUPPLY OUTLET NODE
